WIDTH=16;
DEPTH=12544;

ADDRESS_RADIX=HEX;
DATA_RADIX=HEX;

CONTENT BEGIN
    0 : FFF6;
    1 : FFFE;
    2 : 0002;
    3 : 0005;
    4 : FFF4;
    5 : 0009;
    6 : 0005;
    7 : FFFE;
    8 : 0003;
    9 : 0001;
    A : 0005;
    B : FFF4;
    C : FFF6;
    D : 0010;
    E : 0028;
    F : 000C;
    10 : 0007;
    11 : 000D;
    12 : 0009;
    13 : 0011;
    14 : FFFD;
    15 : FFEF;
    16 : 000B;
    17 : 0000;
    18 : 0004;
    19 : 0000;
    1A : 0014;
    1B : 0004;
    1C : FFFE;
    1D : 000E;
    1E : 0004;
    1F : 0007;
    20 : 0005;
    21 : FFE1;
    22 : FFF7;
    23 : 0021;
    24 : 004B;
    25 : 002D;
    26 : 0012;
    27 : 0036;
    28 : 0007;
    29 : 0073;
    2A : 0055;
    2B : FFEA;
    2C : 0064;
    2D : FFFE;
    2E : FFAC;
    2F : FF94;
    30 : FF8A;
    31 : FFAA;
    32 : FFA3;
    33 : FFBE;
    34 : FFFB;
    35 : FFF8;
    36 : 0000;
    37 : FFFB;
    38 : FFFC;
    39 : 000A;
    3A : FFEC;
    3B : FFCB;
    3C : FFA8;
    3D : 0000;
    3E : FFFD;
    3F : 0006;
    40 : 003E;
    41 : 0034;
    42 : FFF1;
    43 : FF8E;
    44 : FFE3;
    45 : FFCD;
    46 : FFD9;
    47 : FFC2;
    48 : FFF7;
    49 : 000A;
    4A : 0033;
    4B : FFB1;
    4C : FFF9;
    4D : FFFD;
    4E : FFC4;
    4F : FFC3;
    50 : 003B;
    51 : 003B;
    52 : FFF8;
    53 : FFF3;
    54 : 0009;
    55 : 000C;
    56 : FFAF;
    57 : FFBD;
    58 : FFA8;
    59 : FF55;
    5A : FF6B;
    5B : FFB8;
    5C : FFAC;
    5D : FFE9;
    5E : 0003;
    5F : FFEB;
    60 : FFF4;
    61 : 0044;
    62 : 001F;
    63 : 0003;
    64 : 002C;
    65 : 002C;
    66 : 0023;
    67 : 0006;
    68 : FFD9;
    69 : 0000;
    6A : 0054;
    6B : 0034;
    6C : 002E;
    6D : 0065;
    6E : FFEF;
    6F : FFFE;
    70 : FFFE;
    71 : 0002;
    72 : FF7A;
    73 : FF87;
    74 : FFAF;
    75 : FF80;
    76 : FFF2;
    77 : 0012;
    78 : 0013;
    79 : 0057;
    7A : 0018;
    7B : 0010;
    7C : 0026;
    7D : 0029;
    7E : 004F;
    7F : 0024;
    80 : 0016;
    81 : 0036;
    82 : FFF9;
    83 : FFFA;
    84 : 0026;
    85 : FFDE;
    86 : FFFB;
    87 : FFF4;
    88 : 0041;
    89 : 0062;
    8A : 0055;
    8B : 0011;
    8C : FFF2;
    8D : FFFE;
    8E : FF67;
    8F : FFC7;
    90 : FF8A;
    91 : FF7A;
    92 : FFF1;
    93 : FFEC;
    94 : FFF6;
    95 : 0014;
    96 : 0018;
    97 : 002D;
    98 : 0011;
    99 : 0019;
    9A : 0024;
    9B : FFF5;
    9C : 0012;
    9D : 001A;
    9E : 0002;
    9F : 0027;
    A0 : 003D;
    A1 : 001C;
    A2 : 0008;
    A3 : FFD8;
    A4 : 0004;
    A5 : 0086;
    A6 : 0033;
    A7 : FF91;
    A8 : 000F;
    A9 : 0007;
    AA : FFDF;
    AB : FF84;
    AC : FFB9;
    AD : FFDE;
    AE : 001B;
    AF : FFFB;
    B0 : 0011;
    B1 : 0005;
    B2 : 0013;
    B3 : FFF1;
    B4 : 0019;
    B5 : 000B;
    B6 : 0000;
    B7 : 0017;
    B8 : FFE7;
    B9 : 000A;
    BA : FFF1;
    BB : 0025;
    BC : 0024;
    BD : FFF9;
    BE : 0010;
    BF : 0009;
    C0 : FFDB;
    C1 : 0028;
    C2 : FFA5;
    C3 : 000A;
    C4 : 0009;
    C5 : FF96;
    C6 : FFFA;
    C7 : FFCB;
    C8 : 0006;
    C9 : 0020;
    CA : 0002;
    CB : 000D;
    CC : 003F;
    CD : 000A;
    CE : 0029;
    CF : 0011;
    D0 : 000F;
    D1 : 001D;
    D2 : FFE5;
    D3 : 0022;
    D4 : 0013;
    D5 : 0005;
    D6 : 0031;
    D7 : 0018;
    D8 : FFF9;
    D9 : 0025;
    DA : 0031;
    DB : 004C;
    DC : 0051;
    DD : 002F;
    DE : FFE0;
    DF : 0032;
    E0 : FFC9;
    E1 : FFC8;
    E2 : FFDA;
    E3 : 0011;
    E4 : 0009;
    E5 : 0003;
    E6 : FFFD;
    E7 : 0024;
    E8 : 0005;
    E9 : 0021;
    EA : 002C;
    EB : 0015;
    EC : 0027;
    ED : 003E;
    EE : 000E;
    EF : 0015;
    F0 : 003D;
    F1 : 0024;
    F2 : 0038;
    F3 : 0031;
    F4 : 002C;
    F5 : FFFF;
    F6 : 0017;
    F7 : 0085;
    F8 : 008A;
    F9 : 003D;
    FA : 0058;
    FB : 006D;
    FC : FFF8;
    FD : FF7F;
    FE : FFDC;
    FF : 002E;
    100 : FFDB;
    101 : 001C;
    102 : 0011;
    103 : FFED;
    104 : 0007;
    105 : 0025;
    106 : 0021;
    107 : 0010;
    108 : 000F;
    109 : 0030;
    10A : 0009;
    10B : FFE5;
    10C : 000A;
    10D : 001A;
    10E : 002B;
    10F : 0026;
    110 : 0028;
    111 : 002B;
    112 : 002B;
    113 : 007B;
    114 : 0072;
    115 : 006E;
    116 : 005B;
    117 : FFBB;
    118 : FFFE;
    119 : FF88;
    11A : FFE2;
    11B : FFDB;
    11C : 000A;
    11D : FFFB;
    11E : 0027;
    11F : 002B;
    120 : 0021;
    121 : 002A;
    122 : 0045;
    123 : 0016;
    124 : 000D;
    125 : 0003;
    126 : 000D;
    127 : FFD1;
    128 : FFD7;
    129 : FFFD;
    12A : 002C;
    12B : 0035;
    12C : 0026;
    12D : 0038;
    12E : 0050;
    12F : 0084;
    130 : 0063;
    131 : FFE5;
    132 : 0007;
    133 : 0004;
    134 : FFDF;
    135 : FFAD;
    136 : FF33;
    137 : FFF5;
    138 : 001F;
    139 : 0037;
    13A : 002F;
    13B : 003B;
    13C : 0020;
    13D : 002B;
    13E : 0000;
    13F : 000E;
    140 : FFF7;
    141 : FFF3;
    142 : FFE8;
    143 : FFC6;
    144 : FFC6;
    145 : FFD6;
    146 : FFDD;
    147 : 001C;
    148 : FFF7;
    149 : 0020;
    14A : 0057;
    14B : 006A;
    14C : 00A4;
    14D : 001E;
    14E : 0050;
    14F : FFC4;
    150 : FFBA;
    151 : FFF3;
    152 : FF48;
    153 : 0027;
    154 : FFFF;
    155 : 0036;
    156 : FFE6;
    157 : 0007;
    158 : FFF4;
    159 : FFFD;
    15A : FFDB;
    15B : FFD6;
    15C : FFFC;
    15D : FFF7;
    15E : FFD1;
    15F : FFDB;
    160 : FFC3;
    161 : FFFA;
    162 : FFC9;
    163 : 001F;
    164 : 0026;
    165 : 0031;
    166 : 0019;
    167 : 0030;
    168 : 00A1;
    169 : FFDA;
    16A : FFDD;
    16B : FFAF;
    16C : FFE8;
    16D : FFCB;
    16E : FF73;
    16F : 0027;
    170 : FFAF;
    171 : FFF8;
    172 : FFBF;
    173 : FFF9;
    174 : FFF2;
    175 : FFE3;
    176 : FFC5;
    177 : FFF1;
    178 : 0003;
    179 : 0005;
    17A : FFD4;
    17B : FFFF;
    17C : FFEB;
    17D : FFE6;
    17E : 0002;
    17F : 0005;
    180 : 0000;
    181 : FFF3;
    182 : 001E;
    183 : 001A;
    184 : 0031;
    185 : 0048;
    186 : 0025;
    187 : 006D;
    188 : 0021;
    189 : FF93;
    18A : FF68;
    18B : 001F;
    18C : FFED;
    18D : FFD8;
    18E : 000D;
    18F : FFEF;
    190 : FFCF;
    191 : FFB7;
    192 : FFF0;
    193 : 0003;
    194 : FFFE;
    195 : FFFA;
    196 : FFFE;
    197 : FFF1;
    198 : FFD5;
    199 : FFED;
    19A : FFC1;
    19B : FFEB;
    19C : FFC0;
    19D : FFA2;
    19E : FF91;
    19F : FFB8;
    1A0 : FFFE;
    1A1 : 0047;
    1A2 : 0081;
    1A3 : 0070;
    1A4 : 001A;
    1A5 : FFC7;
    1A6 : FFC9;
    1A7 : 0045;
    1A8 : FFF4;
    1A9 : 0002;
    1AA : 0015;
    1AB : 0007;
    1AC : FFE0;
    1AD : FFF9;
    1AE : FFC9;
    1AF : FFEA;
    1B0 : FFF3;
    1B1 : 0005;
    1B2 : 0002;
    1B3 : FFE8;
    1B4 : FFE9;
    1B5 : FFE0;
    1B6 : FFD6;
    1B7 : FFD4;
    1B8 : FFA5;
    1B9 : FF9C;
    1BA : FF9F;
    1BB : FF98;
    1BC : 000D;
    1BD : 005F;
    1BE : 0041;
    1BF : 0063;
    1C0 : FFCB;
    1C1 : FFCE;
    1C2 : FF8A;
    1C3 : 0024;
    1C4 : FFE5;
    1C5 : FFFE;
    1C6 : 0039;
    1C7 : 0010;
    1C8 : FFDB;
    1C9 : 000A;
    1CA : FFEE;
    1CB : FFE1;
    1CC : 0013;
    1CD : 0010;
    1CE : 000B;
    1CF : 000D;
    1D0 : FFFB;
    1D1 : 0002;
    1D2 : FFD4;
    1D3 : FFBB;
    1D4 : FFCB;
    1D5 : FFE9;
    1D6 : FFC2;
    1D7 : FFC8;
    1D8 : FFEA;
    1D9 : 0086;
    1DA : 0091;
    1DB : 008B;
    1DC : FFFA;
    1DD : FFA6;
    1DE : FF8B;
    1DF : FFD8;
    1E0 : 000A;
    1E1 : 003D;
    1E2 : 0031;
    1E3 : 0006;
    1E4 : 0010;
    1E5 : 0044;
    1E6 : 001D;
    1E7 : 0041;
    1E8 : 0036;
    1E9 : 0017;
    1EA : 000C;
    1EB : FFFE;
    1EC : 0014;
    1ED : FFDB;
    1EE : FFCF;
    1EF : FFCB;
    1F0 : 0004;
    1F1 : FFE7;
    1F2 : 0000;
    1F3 : FFC9;
    1F4 : 0024;
    1F5 : 003A;
    1F6 : 0025;
    1F7 : 0088;
    1F8 : FFAA;
    1F9 : FF82;
    1FA : FF35;
    1FB : FFB0;
    1FC : 0024;
    1FD : 0052;
    1FE : 0045;
    1FF : 003A;
    200 : 005E;
    201 : 005F;
    202 : 003D;
    203 : 002B;
    204 : 002E;
    205 : 0011;
    206 : FFEE;
    207 : FFE8;
    208 : FFD0;
    209 : FFE1;
    20A : FFF2;
    20B : 0008;
    20C : 0008;
    20D : 0002;
    20E : 0025;
    20F : 0047;
    210 : 0099;
    211 : FFF4;
    212 : FFA7;
    213 : 003B;
    214 : FFBB;
    215 : FFA3;
    216 : FF60;
    217 : FF97;
    218 : 000E;
    219 : 001F;
    21A : 002F;
    21B : 0035;
    21C : 004F;
    21D : 0040;
    21E : 005D;
    21F : 0026;
    220 : 0029;
    221 : 001B;
    222 : FFE8;
    223 : FFFF;
    224 : FFDB;
    225 : 0014;
    226 : 0008;
    227 : 000C;
    228 : 001A;
    229 : 0007;
    22A : 0059;
    22B : 0065;
    22C : 0054;
    22D : 0009;
    22E : 006A;
    22F : 0030;
    230 : 000D;
    231 : 0013;
    232 : FFF8;
    233 : FFD0;
    234 : FFFC;
    235 : 001A;
    236 : 0014;
    237 : 0027;
    238 : 0021;
    239 : 0002;
    23A : FFFF;
    23B : 0000;
    23C : 0020;
    23D : 0021;
    23E : FFDA;
    23F : 001F;
    240 : FFEA;
    241 : FFFE;
    242 : FFF7;
    243 : 0028;
    244 : 0035;
    245 : 0035;
    246 : 005B;
    247 : 005B;
    248 : 0000;
    249 : FFA9;
    24A : 0036;
    24B : FFC1;
    24C : FFBC;
    24D : FFD9;
    24E : 0044;
    24F : FFF8;
    250 : FFF3;
    251 : FFFD;
    252 : 001F;
    253 : 0027;
    254 : FFE4;
    255 : 0000;
    256 : FFDA;
    257 : FFFE;
    258 : FFF3;
    259 : 0018;
    25A : 0020;
    25B : 0000;
    25C : FFFC;
    25D : 002F;
    25E : 0003;
    25F : 001E;
    260 : 0031;
    261 : 003E;
    262 : 0038;
    263 : 0081;
    264 : 000F;
    265 : FFA7;
    266 : 001B;
    267 : FFFE;
    268 : FFBB;
    269 : FFA0;
    26A : 0049;
    26B : 000A;
    26C : 003C;
    26D : FFFE;
    26E : 0025;
    26F : 002A;
    270 : FFFD;
    271 : 0007;
    272 : FFF2;
    273 : 0028;
    274 : 001F;
    275 : 0021;
    276 : 000C;
    277 : FFF8;
    278 : 0003;
    279 : 0013;
    27A : FFFE;
    27B : 0021;
    27C : 0010;
    27D : 003E;
    27E : 0041;
    27F : 0047;
    280 : 003C;
    281 : FFC6;
    282 : FF88;
    283 : 0008;
    284 : 0000;
    285 : 0008;
    286 : 0046;
    287 : FFEA;
    288 : 000D;
    289 : FFD1;
    28A : 0009;
    28B : 0005;
    28C : 0047;
    28D : 0020;
    28E : FFFC;
    28F : 0032;
    290 : 0038;
    291 : 0017;
    292 : 0011;
    293 : 002F;
    294 : 0032;
    295 : 0032;
    296 : 000E;
    297 : 0022;
    298 : 0033;
    299 : 005C;
    29A : 0070;
    29B : 004D;
    29C : 0002;
    29D : 0005;
    29E : FF4C;
    29F : FFFA;
    2A0 : 0008;
    2A1 : FFFA;
    2A2 : FFC6;
    2A3 : FFB3;
    2A4 : FF77;
    2A5 : FF76;
    2A6 : FFD4;
    2A7 : FFDC;
    2A8 : 001C;
    2A9 : 0014;
    2AA : FFF4;
    2AB : 0030;
    2AC : 0055;
    2AD : 004C;
    2AE : 0041;
    2AF : 0048;
    2B0 : 0045;
    2B1 : 0002;
    2B2 : 0036;
    2B3 : 0059;
    2B4 : 0038;
    2B5 : FFFD;
    2B6 : 0027;
    2B7 : FFE7;
    2B8 : 004A;
    2B9 : 0043;
    2BA : FFB9;
    2BB : FFFE;
    2BC : 0010;
    2BD : FFFF;
    2BE : FF8A;
    2BF : FFF5;
    2C0 : FF67;
    2C1 : FEF6;
    2C2 : FFE2;
    2C3 : FFAF;
    2C4 : FF76;
    2C5 : FFAF;
    2C6 : 0030;
    2C7 : 0011;
    2C8 : FFE6;
    2C9 : 0002;
    2CA : 0049;
    2CB : 0064;
    2CC : 005B;
    2CD : 0052;
    2CE : 002E;
    2CF : 0030;
    2D0 : FFC5;
    2D1 : FF81;
    2D2 : FF56;
    2D3 : FF35;
    2D4 : FF83;
    2D5 : FFCB;
    2D6 : 0035;
    2D7 : FFF8;
    2D8 : 000A;
    2D9 : FFFE;
    2DA : FFEF;
    2DB : FFE1;
    2DC : FF9E;
    2DD : FF37;
    2DE : FF1E;
    2DF : FF80;
    2E0 : FFCA;
    2E1 : FF8A;
    2E2 : FF86;
    2E3 : FFB5;
    2E4 : FFC8;
    2E5 : FF91;
    2E6 : FF70;
    2E7 : FF5C;
    2E8 : FF7C;
    2E9 : FFBF;
    2EA : FFEA;
    2EB : FFAB;
    2EC : FF63;
    2ED : FF2D;
    2EE : FF54;
    2EF : FFDE;
    2F0 : FFC7;
    2F1 : 0010;
    2F2 : FFF7;
    2F3 : 000A;
    2F4 : 0006;
    2F5 : FFF6;
    2F6 : FFF4;
    2F7 : FFF0;
    2F8 : 0006;
    2F9 : 0000;
    2FA : FFE8;
    2FB : FFD0;
    2FC : FFD0;
    2FD : FFC0;
    2FE : FFC8;
    2FF : FFC6;
    300 : FFAC;
    301 : FFEC;
    302 : FFD5;
    303 : 001C;
    304 : FFF9;
    305 : FFD4;
    306 : FF95;
    307 : FFB0;
    308 : 0018;
    309 : FFBA;
    30A : FF7C;
    30B : FF97;
    30C : FFEF;
    30D : 0007;
    30E : FFEB;
    30F : 0014;
    310 : 0003;
    311 : 0009;
    312 : FFFC;
    313 : 0005;
    314 : FFF7;
    315 : 000D;
    316 : FFFE;
    317 : 0011;
    318 : 0007;
    319 : 0003;
    31A : 0004;
    31B : 0011;
    31C : FFE9;
    31D : FFE5;
    31E : FFF9;
    31F : 000C;
    320 : 000C;
    321 : 0003;
    322 : 000C;
    323 : FFF8;
    324 : 0006;
    325 : FFED;
    326 : FFFE;
    327 : 0007;
    328 : 0005;
    329 : FFF9;
    32A : FFF5;
    32B : FFF7;
    32C : FFF7;
    32D : 0009;
    32E : 0006;
    32F : 0001;
    330 : FFF3;
    331 : FFEA;
    332 : FFB8;
    333 : FFBE;
    334 : FFCC;
    335 : FFC4;
    336 : FFC1;
    337 : 002E;
    338 : 001B;
    339 : FFFA;
    33A : FFA5;
    33B : FFCD;
    33C : 0001;
    33D : FFDC;
    33E : FF73;
    33F : FF93;
    340 : FF98;
    341 : FF82;
    342 : FFE1;
    343 : FFFC;
    344 : FFF9;
    345 : 0000;
    346 : FFFC;
    347 : 0007;
    348 : FFFA;
    349 : 0001;
    34A : 000A;
    34B : 0029;
    34C : 0019;
    34D : FFD2;
    34E : FFDE;
    34F : FF7E;
    350 : FF50;
    351 : FF8D;
    352 : FF7E;
    353 : FF73;
    354 : FFB7;
    355 : FFB7;
    356 : FF8B;
    357 : FF85;
    358 : FFE4;
    359 : 0000;
    35A : 0011;
    35B : FFE7;
    35C : FFD7;
    35D : FFD6;
    35E : FFE1;
    35F : 0005;
    360 : FFFB;
    361 : 001F;
    362 : FFFC;
    363 : FFF3;
    364 : 0004;
    365 : 000B;
    366 : 003A;
    367 : 003D;
    368 : 003E;
    369 : 001A;
    36A : FFEE;
    36B : FFFE;
    36C : 002F;
    36D : FFD0;
    36E : FFEB;
    36F : FFF8;
    370 : 004A;
    371 : 000F;
    372 : 0021;
    373 : 0023;
    374 : FFEA;
    375 : FFF5;
    376 : 000A;
    377 : 0006;
    378 : 0052;
    379 : FFEB;
    37A : FFAF;
    37B : FFEE;
    37C : 000E;
    37D : 0047;
    37E : FFFB;
    37F : 000D;
    380 : FFFF;
    381 : 001C;
    382 : 0042;
    383 : 0095;
    384 : FFC3;
    385 : FFEE;
    386 : 000B;
    387 : FFF7;
    388 : 0013;
    389 : 0027;
    38A : 003B;
    38B : 0047;
    38C : 0024;
    38D : 0013;
    38E : 0013;
    38F : 0040;
    390 : 0019;
    391 : 0024;
    392 : 003B;
    393 : 0016;
    394 : 000D;
    395 : 0027;
    396 : 000F;
    397 : FFF0;
    398 : 004E;
    399 : 0058;
    39A : 0000;
    39B : FF89;
    39C : 0016;
    39D : FFFD;
    39E : FF9C;
    39F : 0032;
    3A0 : 0003;
    3A1 : 0034;
    3A2 : 002B;
    3A3 : 002A;
    3A4 : 0019;
    3A5 : 0029;
    3A6 : FFF4;
    3A7 : FFE5;
    3A8 : FFD9;
    3A9 : 000F;
    3AA : 0006;
    3AB : 0000;
    3AC : 002D;
    3AD : 0024;
    3AE : 0017;
    3AF : FFFB;
    3B0 : FFFD;
    3B1 : FFF0;
    3B2 : 002F;
    3B3 : 0011;
    3B4 : FFFD;
    3B5 : 0038;
    3B6 : FFF9;
    3B7 : FF93;
    3B8 : FFF6;
    3B9 : 004A;
    3BA : 001A;
    3BB : 0027;
    3BC : 004B;
    3BD : 007E;
    3BE : 0067;
    3BF : 0019;
    3C0 : FFF1;
    3C1 : 0004;
    3C2 : FFF6;
    3C3 : FFE4;
    3C4 : FFE8;
    3C5 : FFDE;
    3C6 : FFEF;
    3C7 : FFCA;
    3C8 : FFD7;
    3C9 : FFE4;
    3CA : 0003;
    3CB : 0010;
    3CC : 0013;
    3CD : 0009;
    3CE : 0038;
    3CF : 0033;
    3D0 : 0045;
    3D1 : 002C;
    3D2 : 0046;
    3D3 : FF9D;
    3D4 : FFEF;
    3D5 : 0093;
    3D6 : FFEE;
    3D7 : 0061;
    3D8 : 0056;
    3D9 : 0076;
    3DA : 0023;
    3DB : 002E;
    3DC : 0024;
    3DD : FFFB;
    3DE : 0001;
    3DF : 0007;
    3E0 : FFEB;
    3E1 : FFC6;
    3E2 : FFD0;
    3E3 : FFD1;
    3E4 : FFDA;
    3E5 : FFFE;
    3E6 : 000A;
    3E7 : 0004;
    3E8 : 0011;
    3E9 : FFF1;
    3EA : 0023;
    3EB : 003E;
    3EC : 0061;
    3ED : 0050;
    3EE : 0004;
    3EF : FFC5;
    3F0 : 004C;
    3F1 : 004B;
    3F2 : FFEB;
    3F3 : 0043;
    3F4 : FFFC;
    3F5 : 0014;
    3F6 : FFFB;
    3F7 : 0017;
    3F8 : 000B;
    3F9 : 0007;
    3FA : 000F;
    3FB : 0012;
    3FC : 0020;
    3FD : FFF3;
    3FE : FFDC;
    3FF : 0004;
    400 : 0007;
    401 : 0013;
    402 : 002C;
    403 : 0025;
    404 : 0047;
    405 : 001A;
    406 : 004C;
    407 : 0061;
    408 : 007E;
    409 : 0063;
    40A : 002A;
    40B : 007C;
    40C : 0020;
    40D : 0039;
    40E : FFC6;
    40F : 0003;
    410 : 0017;
    411 : 0010;
    412 : FFFE;
    413 : 0008;
    414 : 0025;
    415 : 000A;
    416 : 000D;
    417 : 0008;
    418 : 0018;
    419 : 0006;
    41A : 0020;
    41B : 000E;
    41C : 0038;
    41D : 0033;
    41E : 0037;
    41F : 001C;
    420 : 002E;
    421 : 0041;
    422 : 0057;
    423 : 004C;
    424 : 0086;
    425 : 00EE;
    426 : 0037;
    427 : 002A;
    428 : 0021;
    429 : 0000;
    42A : 000D;
    42B : 0037;
    42C : 0029;
    42D : FFFD;
    42E : 001B;
    42F : 0018;
    430 : 001C;
    431 : 000D;
    432 : 0018;
    433 : 0019;
    434 : 0018;
    435 : 0040;
    436 : 0031;
    437 : 002B;
    438 : 002A;
    439 : 0028;
    43A : 001F;
    43B : 0014;
    43C : 002D;
    43D : 0026;
    43E : 0014;
    43F : 0003;
    440 : 006F;
    441 : 00D9;
    442 : 006C;
    443 : FFE9;
    444 : 000B;
    445 : 001B;
    446 : 0002;
    447 : 000F;
    448 : 0065;
    449 : FFFC;
    44A : 0015;
    44B : 0004;
    44C : FFFE;
    44D : FFF7;
    44E : 0006;
    44F : 0037;
    450 : 0020;
    451 : 002E;
    452 : 0011;
    453 : 0020;
    454 : FFF2;
    455 : 0007;
    456 : 0003;
    457 : FFF1;
    458 : FFEC;
    459 : FF98;
    45A : FFA3;
    45B : FFA9;
    45C : 0003;
    45D : 007F;
    45E : 007B;
    45F : FFB3;
    460 : FFF5;
    461 : 0004;
    462 : FFE6;
    463 : FFFC;
    464 : 0020;
    465 : 0021;
    466 : 001B;
    467 : FFFB;
    468 : 000B;
    469 : 0011;
    46A : 0040;
    46B : 002B;
    46C : 0043;
    46D : 0021;
    46E : 0012;
    46F : FFF7;
    470 : FFE2;
    471 : FFF5;
    472 : 000D;
    473 : FFF1;
    474 : FFFF;
    475 : FF9C;
    476 : FF74;
    477 : FF57;
    478 : FF93;
    479 : FFE8;
    47A : 0086;
    47B : FF87;
    47C : FFF7;
    47D : FFC7;
    47E : 000C;
    47F : 001D;
    480 : FFD1;
    481 : 0024;
    482 : FFFE;
    483 : 0016;
    484 : 0011;
    485 : 001A;
    486 : 001C;
    487 : 002F;
    488 : 001B;
    489 : FFEB;
    48A : FFDB;
    48B : FFC0;
    48C : FFE3;
    48D : 0000;
    48E : 001B;
    48F : FFED;
    490 : FFF5;
    491 : FFD8;
    492 : FF77;
    493 : FFB8;
    494 : FFF0;
    495 : FFB8;
    496 : FFFB;
    497 : FF8C;
    498 : 0038;
    499 : 0033;
    49A : 002D;
    49B : 002C;
    49C : 001E;
    49D : FFDB;
    49E : FFEB;
    49F : 0013;
    4A0 : 000E;
    4A1 : 001E;
    4A2 : 0013;
    4A3 : FFF5;
    4A4 : FFEA;
    4A5 : FFC3;
    4A6 : FFF7;
    4A7 : FFEE;
    4A8 : FFE6;
    4A9 : 000A;
    4AA : 0006;
    4AB : FFEE;
    4AC : FFE9;
    4AD : FFFB;
    4AE : FFFB;
    4AF : 006F;
    4B0 : 00A1;
    4B1 : FFD6;
    4B2 : FF9D;
    4B3 : FFBC;
    4B4 : 0034;
    4B5 : 0035;
    4B6 : 002D;
    4B7 : 0008;
    4B8 : 002D;
    4B9 : 0009;
    4BA : 0025;
    4BB : FFF6;
    4BC : FFDA;
    4BD : FFE4;
    4BE : FFC3;
    4BF : FFD1;
    4C0 : FFF6;
    4C1 : FFD4;
    4C2 : FFDF;
    4C3 : FFF7;
    4C4 : FFCF;
    4C5 : FFEA;
    4C6 : 000E;
    4C7 : 0017;
    4C8 : 0001;
    4C9 : 000F;
    4CA : 0036;
    4CB : 008A;
    4CC : 00A8;
    4CD : FFAE;
    4CE : FFEB;
    4CF : FFD9;
    4D0 : 0022;
    4D1 : 0052;
    4D2 : FFF9;
    4D3 : 005A;
    4D4 : 0025;
    4D5 : 0005;
    4D6 : FFDA;
    4D7 : FFD0;
    4D8 : FFAD;
    4D9 : FFC0;
    4DA : FFBA;
    4DB : FFAA;
    4DC : FFE0;
    4DD : FFF0;
    4DE : FFF1;
    4DF : FFFD;
    4E0 : FFE2;
    4E1 : 0027;
    4E2 : 0024;
    4E3 : 003B;
    4E4 : 0024;
    4E5 : 002E;
    4E6 : 0047;
    4E7 : 0037;
    4E8 : 00A1;
    4E9 : FF56;
    4EA : FFFA;
    4EB : 0025;
    4EC : FFF6;
    4ED : 005B;
    4EE : FFBE;
    4EF : 009C;
    4F0 : 0057;
    4F1 : 0004;
    4F2 : 0026;
    4F3 : FFE7;
    4F4 : FFB2;
    4F5 : FFA3;
    4F6 : FF9E;
    4F7 : FFC6;
    4F8 : FFC1;
    4F9 : FFCD;
    4FA : FFB0;
    4FB : FFE4;
    4FC : 001F;
    4FD : 0034;
    4FE : 0018;
    4FF : 001F;
    500 : 001B;
    501 : 0008;
    502 : 001F;
    503 : 0039;
    504 : 003E;
    505 : FF6A;
    506 : 0053;
    507 : 0052;
    508 : 002D;
    509 : 0060;
    50A : FFC0;
    50B : 007E;
    50C : 0047;
    50D : 0047;
    50E : 004E;
    50F : 0014;
    510 : 000B;
    511 : FFE5;
    512 : FFD3;
    513 : FFDC;
    514 : FFDE;
    515 : FFD6;
    516 : FFF1;
    517 : 0018;
    518 : 002B;
    519 : 0011;
    51A : FFF4;
    51B : 0004;
    51C : 0008;
    51D : 0027;
    51E : 003E;
    51F : 0031;
    520 : 0014;
    521 : FFA2;
    522 : 002C;
    523 : FFA1;
    524 : FFFA;
    525 : 006C;
    526 : FFEE;
    527 : 0044;
    528 : 0047;
    529 : 005B;
    52A : 0034;
    52B : 0017;
    52C : 0033;
    52D : 0016;
    52E : 0006;
    52F : 000A;
    530 : 0009;
    531 : 0018;
    532 : 0025;
    533 : 0028;
    534 : FFFF;
    535 : 000B;
    536 : 0005;
    537 : FFDD;
    538 : 0006;
    539 : 000B;
    53A : 000B;
    53B : 0039;
    53C : 0072;
    53D : FFDE;
    53E : FF71;
    53F : FF9F;
    540 : FFF6;
    541 : 0030;
    542 : FFA6;
    543 : 000E;
    544 : 0013;
    545 : 0024;
    546 : 0021;
    547 : FFFB;
    548 : 0033;
    549 : 0032;
    54A : 001C;
    54B : 001E;
    54C : 001B;
    54D : 0020;
    54E : 001A;
    54F : 0011;
    550 : 0001;
    551 : 0014;
    552 : 000A;
    553 : FFC9;
    554 : 0003;
    555 : FFC6;
    556 : 001A;
    557 : 0038;
    558 : FFF2;
    559 : FF7C;
    55A : FFA7;
    55B : FFFE;
    55C : FFC4;
    55D : 000F;
    55E : FFE4;
    55F : FFBA;
    560 : 0026;
    561 : FFDA;
    562 : 0010;
    563 : 0007;
    564 : 000B;
    565 : FFDC;
    566 : FFF7;
    567 : 000B;
    568 : 0020;
    569 : 0007;
    56A : 0009;
    56B : 0011;
    56C : FFFC;
    56D : FFF9;
    56E : FFF1;
    56F : FFF4;
    570 : FFE8;
    571 : FFF1;
    572 : 0014;
    573 : 0027;
    574 : FFAE;
    575 : FF83;
    576 : 0001;
    577 : 000A;
    578 : FFD5;
    579 : FFEC;
    57A : 0008;
    57B : FFBA;
    57C : FFE5;
    57D : FFB7;
    57E : FFE7;
    57F : FFF1;
    580 : FFE2;
    581 : 0012;
    582 : FFDF;
    583 : 0011;
    584 : FFFD;
    585 : FFF9;
    586 : 0002;
    587 : 0008;
    588 : 0017;
    589 : 0014;
    58A : 0019;
    58B : 0004;
    58C : FFEC;
    58D : FFC8;
    58E : FFE7;
    58F : 0002;
    590 : FF9D;
    591 : FF47;
    592 : 0021;
    593 : 0004;
    594 : 0008;
    595 : FFF2;
    596 : 007B;
    597 : 002D;
    598 : 0045;
    599 : 0018;
    59A : 0008;
    59B : 000D;
    59C : FFF4;
    59D : 0025;
    59E : 0032;
    59F : 0042;
    5A0 : 0004;
    5A1 : FFF7;
    5A2 : 000F;
    5A3 : 0025;
    5A4 : 0010;
    5A5 : 0003;
    5A6 : FFE9;
    5A7 : FFD8;
    5A8 : FFE6;
    5A9 : FF92;
    5AA : FF66;
    5AB : FF92;
    5AC : FFEE;
    5AD : FF8D;
    5AE : FFEF;
    5AF : FFF9;
    5B0 : FFFF;
    5B1 : FFFA;
    5B2 : FFF2;
    5B3 : 0076;
    5B4 : 0014;
    5B5 : 0012;
    5B6 : 0003;
    5B7 : 0006;
    5B8 : FFF7;
    5B9 : 000C;
    5BA : 0005;
    5BB : 0008;
    5BC : 0003;
    5BD : 0040;
    5BE : 0057;
    5BF : 002D;
    5C0 : FFFA;
    5C1 : 0011;
    5C2 : FFE5;
    5C3 : FFDD;
    5C4 : FFC9;
    5C5 : FFE4;
    5C6 : 000B;
    5C7 : FFC8;
    5C8 : 0017;
    5C9 : FF78;
    5CA : FFB5;
    5CB : 0004;
    5CC : FFFE;
    5CD : 000B;
    5CE : FFCB;
    5CF : 0038;
    5D0 : 0011;
    5D1 : 000B;
    5D2 : 002C;
    5D3 : 0004;
    5D4 : FFF6;
    5D5 : FFF4;
    5D6 : 001F;
    5D7 : 000B;
    5D8 : 0043;
    5D9 : 002D;
    5DA : FFE6;
    5DB : 0023;
    5DC : 003C;
    5DD : 0028;
    5DE : 0066;
    5DF : 0060;
    5E0 : 0001;
    5E1 : 000B;
    5E2 : 0052;
    5E3 : 0057;
    5E4 : 0068;
    5E5 : FFE8;
    5E6 : 0000;
    5E7 : FFFE;
    5E8 : 000E;
    5E9 : FFF7;
    5EA : FFF1;
    5EB : FFF0;
    5EC : FF9D;
    5ED : FF93;
    5EE : FF9A;
    5EF : FFA6;
    5F0 : FFD2;
    5F1 : FFCA;
    5F2 : FFE7;
    5F3 : 0002;
    5F4 : 0001;
    5F5 : 0006;
    5F6 : FFDD;
    5F7 : 0034;
    5F8 : 001D;
    5F9 : FFF7;
    5FA : FFFE;
    5FB : 0056;
    5FC : 002D;
    5FD : FFEC;
    5FE : FFD2;
    5FF : FFEC;
    600 : FFC0;
    601 : 0027;
    602 : 000F;
    603 : 000A;
    604 : 0000;
    605 : FFF8;
    606 : 0003;
    607 : FFED;
    608 : 0023;
    609 : 0050;
    60A : FFEA;
    60B : FFDF;
    60C : FFF2;
    60D : FFC2;
    60E : FFDA;
    60F : FFD9;
    610 : FFB3;
    611 : FFF7;
    612 : FF9F;
    613 : FFB6;
    614 : FFA3;
    615 : 000C;
    616 : FFE0;
    617 : FFD3;
    618 : 003A;
    619 : FFDD;
    61A : FF9F;
    61B : FFF5;
    61C : 0009;
    61D : 0003;
    61E : FFFF;
    61F : FFFF;
    620 : 0005;
    621 : 0010;
    622 : FFFA;
    623 : 0001;
    624 : 0007;
    625 : FFF9;
    626 : FFF4;
    627 : FFF9;
    628 : 0013;
    629 : 0000;
    62A : 0002;
    62B : FFFA;
    62C : FFD2;
    62D : FFC3;
    62E : FFEA;
    62F : FFF3;
    630 : FFFB;
    631 : 0005;
    632 : 0000;
    633 : 0013;
    634 : 0000;
    635 : FFFD;
    636 : 0003;
    637 : FFF4;
    638 : FFEA;
    639 : 0008;
    63A : 0009;
    63B : FFFF;
    63C : FFFF;
    63D : 0004;
    63E : 0009;
    63F : FFF5;
    640 : FFEA;
    641 : FFE6;
    642 : FFA0;
    643 : FF90;
    644 : FFB3;
    645 : FFEC;
    646 : FFEC;
    647 : FFD5;
    648 : FFC8;
    649 : FFEE;
    64A : FFF9;
    64B : FF5E;
    64C : FFFD;
    64D : FFE1;
    64E : FF82;
    64F : FF9E;
    650 : FF6E;
    651 : FF90;
    652 : FF9C;
    653 : FFC2;
    654 : 0005;
    655 : 001A;
    656 : FFF4;
    657 : 0003;
    658 : FFF9;
    659 : FFFA;
    65A : FFF3;
    65B : 0041;
    65C : FFE4;
    65D : FFE0;
    65E : FFD2;
    65F : FF74;
    660 : FFDC;
    661 : 0047;
    662 : FFC4;
    663 : FFE4;
    664 : 000D;
    665 : FFC6;
    666 : 0002;
    667 : FFBA;
    668 : FFB2;
    669 : FFB0;
    66A : FFB0;
    66B : FFA6;
    66C : FFCB;
    66D : 0048;
    66E : 001B;
    66F : FFB2;
    670 : 0037;
    671 : 0045;
    672 : 0001;
    673 : FFFD;
    674 : 000A;
    675 : 000A;
    676 : FFA3;
    677 : FFB1;
    678 : FF8E;
    679 : 003B;
    67A : FF92;
    67B : FFE1;
    67C : FFF1;
    67D : 0006;
    67E : 0052;
    67F : 007B;
    680 : FFEC;
    681 : FFD1;
    682 : 0027;
    683 : FFE5;
    684 : FFE3;
    685 : FFE2;
    686 : FFB6;
    687 : FFB6;
    688 : FFA8;
    689 : FFD5;
    68A : FFE1;
    68B : FF98;
    68C : FFBD;
    68D : 0011;
    68E : 0032;
    68F : FFF8;
    690 : 0003;
    691 : 0004;
    692 : FFA2;
    693 : FF92;
    694 : FFE0;
    695 : FFFA;
    696 : FFE7;
    697 : 002D;
    698 : 0006;
    699 : 0004;
    69A : FFFA;
    69B : 001D;
    69C : 000D;
    69D : 0008;
    69E : FFFF;
    69F : 000C;
    6A0 : 0000;
    6A1 : 0012;
    6A2 : 0008;
    6A3 : FFFF;
    6A4 : 0004;
    6A5 : FFCE;
    6A6 : 0015;
    6A7 : FFFB;
    6A8 : FFF1;
    6A9 : FFE1;
    6AA : FFD4;
    6AB : 0024;
    6AC : FFFE;
    6AD : FFFF;
    6AE : FF7D;
    6AF : FFCD;
    6B0 : FFFF;
    6B1 : FFB5;
    6B2 : FF93;
    6B3 : FFD8;
    6B4 : 000A;
    6B5 : FFDF;
    6B6 : 0025;
    6B7 : 001B;
    6B8 : 0015;
    6B9 : FFF8;
    6BA : 0003;
    6BB : 000A;
    6BC : 0023;
    6BD : 001C;
    6BE : 0024;
    6BF : 0009;
    6C0 : 0001;
    6C1 : FFE6;
    6C2 : FFD2;
    6C3 : 000B;
    6C4 : FFE0;
    6C5 : FFE6;
    6C6 : FFF8;
    6C7 : 0053;
    6C8 : FFFB;
    6C9 : FFC2;
    6CA : 005B;
    6CB : FFE5;
    6CC : 0008;
    6CD : FFE8;
    6CE : FFEF;
    6CF : FFF7;
    6D0 : 0006;
    6D1 : 0002;
    6D2 : FFF8;
    6D3 : FFEC;
    6D4 : FFE0;
    6D5 : FFF7;
    6D6 : 0009;
    6D7 : 0015;
    6D8 : 0021;
    6D9 : 0009;
    6DA : 0012;
    6DB : 000E;
    6DC : FFF6;
    6DD : 0034;
    6DE : 0025;
    6DF : FFE4;
    6E0 : FFCF;
    6E1 : FF95;
    6E2 : 002A;
    6E3 : 002A;
    6E4 : 0009;
    6E5 : FF8B;
    6E6 : 0069;
    6E7 : 0046;
    6E8 : 0055;
    6E9 : 003A;
    6EA : 0032;
    6EB : FFEF;
    6EC : FFF7;
    6ED : 0015;
    6EE : FFEA;
    6EF : 0001;
    6F0 : FFEB;
    6F1 : 0023;
    6F2 : 001B;
    6F3 : FFFD;
    6F4 : 001D;
    6F5 : 002F;
    6F6 : 0017;
    6F7 : 0011;
    6F8 : 0008;
    6F9 : 0016;
    6FA : 002F;
    6FB : 0017;
    6FC : 0008;
    6FD : FFE3;
    6FE : 0035;
    6FF : 0019;
    700 : 0066;
    701 : FFCB;
    702 : 009A;
    703 : 002E;
    704 : 0043;
    705 : 0026;
    706 : 0008;
    707 : FFEB;
    708 : 0010;
    709 : 001D;
    70A : FFF2;
    70B : FFF2;
    70C : FFD8;
    70D : FFE1;
    70E : 001D;
    70F : 0020;
    710 : 002A;
    711 : 0026;
    712 : 0032;
    713 : 0012;
    714 : 0016;
    715 : 0031;
    716 : 0015;
    717 : 0000;
    718 : FFF2;
    719 : FFFD;
    71A : FFD0;
    71B : FF7D;
    71C : FFCF;
    71D : FFD3;
    71E : 007B;
    71F : 0047;
    720 : FFE5;
    721 : 005E;
    722 : 000A;
    723 : FFDB;
    724 : FFC9;
    725 : FFF9;
    726 : 0010;
    727 : FFD9;
    728 : FFF8;
    729 : FFF8;
    72A : FFFD;
    72B : 002E;
    72C : 004C;
    72D : 0052;
    72E : 004F;
    72F : 002B;
    730 : 0049;
    731 : 0003;
    732 : 0018;
    733 : 000D;
    734 : FFAD;
    735 : FF8D;
    736 : FF91;
    737 : 0040;
    738 : FFE3;
    739 : FFD7;
    73A : 0050;
    73B : 00C0;
    73C : FFCC;
    73D : 003F;
    73E : 0028;
    73F : 000E;
    740 : FFD8;
    741 : FFE3;
    742 : FFC3;
    743 : FFC2;
    744 : FFE3;
    745 : FFBB;
    746 : FFE7;
    747 : 000D;
    748 : 0035;
    749 : 0058;
    74A : 005D;
    74B : 0030;
    74C : 0014;
    74D : 0010;
    74E : 003E;
    74F : FFEF;
    750 : FFC8;
    751 : 0016;
    752 : FF9C;
    753 : FFF8;
    754 : FFE9;
    755 : 006C;
    756 : 0021;
    757 : 0057;
    758 : FFB1;
    759 : FFF6;
    75A : 0017;
    75B : FFE8;
    75C : 0002;
    75D : 000B;
    75E : FFF3;
    75F : FFF4;
    760 : FFF0;
    761 : FFE2;
    762 : FFDC;
    763 : FFF2;
    764 : 0003;
    765 : 002E;
    766 : 0031;
    767 : 003E;
    768 : 003F;
    769 : 003B;
    76A : 0028;
    76B : FFB5;
    76C : FF71;
    76D : FFDE;
    76E : FF75;
    76F : FFDD;
    770 : FFF2;
    771 : 0045;
    772 : 0007;
    773 : FFE9;
    774 : FFC1;
    775 : FFD2;
    776 : 0007;
    777 : FFE3;
    778 : FFFA;
    779 : 0013;
    77A : 002F;
    77B : 0034;
    77C : 003C;
    77D : 002C;
    77E : FFD6;
    77F : FFC5;
    780 : FFE4;
    781 : FFED;
    782 : 001D;
    783 : 003C;
    784 : 002B;
    785 : 000B;
    786 : 000D;
    787 : FFA7;
    788 : FFAC;
    789 : FFBE;
    78A : FFAF;
    78B : 0022;
    78C : FFB6;
    78D : 002F;
    78E : FFFD;
    78F : FFD2;
    790 : 0000;
    791 : FFF5;
    792 : 001D;
    793 : 0019;
    794 : 0033;
    795 : 0032;
    796 : 0031;
    797 : 0046;
    798 : 004B;
    799 : 003B;
    79A : 0002;
    79B : FFDE;
    79C : FFF0;
    79D : FFF6;
    79E : 0024;
    79F : 0008;
    7A0 : FFF2;
    7A1 : 0010;
    7A2 : 0006;
    7A3 : FFD6;
    7A4 : 0009;
    7A5 : FFF3;
    7A6 : 0005;
    7A7 : 005D;
    7A8 : FFCC;
    7A9 : FFCF;
    7AA : FFAD;
    7AB : FFC0;
    7AC : 0009;
    7AD : 0033;
    7AE : 0019;
    7AF : 0075;
    7B0 : 0049;
    7B1 : 002B;
    7B2 : 001F;
    7B3 : 0037;
    7B4 : 0055;
    7B5 : 0031;
    7B6 : FFEE;
    7B7 : FFF3;
    7B8 : FFFD;
    7B9 : 0026;
    7BA : 0024;
    7BB : 000F;
    7BC : 0018;
    7BD : FFE8;
    7BE : 0017;
    7BF : FFFA;
    7C0 : 000C;
    7C1 : 003F;
    7C2 : 007A;
    7C3 : 004A;
    7C4 : FFC6;
    7C5 : FFF6;
    7C6 : FFEF;
    7C7 : 0016;
    7C8 : 002B;
    7C9 : 0022;
    7CA : 0007;
    7CB : 0039;
    7CC : 002E;
    7CD : 001F;
    7CE : 001D;
    7CF : 0027;
    7D0 : 0041;
    7D1 : 000C;
    7D2 : FFE3;
    7D3 : 0020;
    7D4 : 001B;
    7D5 : 0044;
    7D6 : 0004;
    7D7 : 0014;
    7D8 : FFF7;
    7D9 : 0008;
    7DA : 0026;
    7DB : 0022;
    7DC : 0031;
    7DD : 0004;
    7DE : 00DC;
    7DF : 0056;
    7E0 : 0036;
    7E1 : FFB9;
    7E2 : FFD5;
    7E3 : 0003;
    7E4 : 0039;
    7E5 : 000D;
    7E6 : 000F;
    7E7 : 0026;
    7E8 : 0016;
    7E9 : FFFD;
    7EA : 0025;
    7EB : 0059;
    7EC : 0041;
    7ED : FFF8;
    7EE : FFFB;
    7EF : 001B;
    7F0 : 002E;
    7F1 : 005A;
    7F2 : 0029;
    7F3 : 0018;
    7F4 : 0032;
    7F5 : 0027;
    7F6 : 0016;
    7F7 : 0025;
    7F8 : 001B;
    7F9 : 0023;
    7FA : 00B3;
    7FB : 0064;
    7FC : FFFD;
    7FD : FFB6;
    7FE : 008D;
    7FF : FFA8;
    800 : 002D;
    801 : 0022;
    802 : 0002;
    803 : 0000;
    804 : 0014;
    805 : 0025;
    806 : 003B;
    807 : 0030;
    808 : 001E;
    809 : 0003;
    80A : FFDD;
    80B : 0028;
    80C : 002B;
    80D : 0028;
    80E : 000D;
    80F : FFF7;
    810 : 000C;
    811 : 0028;
    812 : 002D;
    813 : FFFE;
    814 : FFDB;
    815 : 001A;
    816 : 0075;
    817 : 005A;
    818 : FF9E;
    819 : 0022;
    81A : 0051;
    81B : FFC0;
    81C : 000D;
    81D : 000E;
    81E : 0005;
    81F : 0010;
    820 : 0025;
    821 : 002F;
    822 : 001C;
    823 : 001F;
    824 : 001F;
    825 : 0002;
    826 : FFE6;
    827 : 0010;
    828 : 0037;
    829 : 0002;
    82A : 0001;
    82B : FFEF;
    82C : FFE3;
    82D : 001C;
    82E : FFF0;
    82F : FFF3;
    830 : FFED;
    831 : 000C;
    832 : 0068;
    833 : 007B;
    834 : FFAE;
    835 : FFCD;
    836 : 000B;
    837 : 0023;
    838 : 0042;
    839 : 0025;
    83A : FFFA;
    83B : 0025;
    83C : 0004;
    83D : FFED;
    83E : FFF6;
    83F : 0003;
    840 : 0004;
    841 : FFF1;
    842 : 0011;
    843 : FFF9;
    844 : 0004;
    845 : FFFB;
    846 : 0005;
    847 : FFF0;
    848 : FFE0;
    849 : 0020;
    84A : FFE1;
    84B : FFC6;
    84C : FFB4;
    84D : FFEF;
    84E : 007D;
    84F : 005F;
    850 : FFF6;
    851 : 004E;
    852 : 004F;
    853 : 003C;
    854 : 0045;
    855 : 0037;
    856 : FFFF;
    857 : 0002;
    858 : FFEF;
    859 : FFEF;
    85A : FFF3;
    85B : 0006;
    85C : FFEE;
    85D : 0000;
    85E : FFF0;
    85F : FFF3;
    860 : FFF9;
    861 : FFF9;
    862 : FFE7;
    863 : 0002;
    864 : 0006;
    865 : 0029;
    866 : FFCB;
    867 : FFCB;
    868 : FFFE;
    869 : FFCD;
    86A : 0062;
    86B : FFD6;
    86C : FFCC;
    86D : 000C;
    86E : 0058;
    86F : 001A;
    870 : FFF8;
    871 : 0006;
    872 : FFE0;
    873 : FFD9;
    874 : FFFD;
    875 : 0006;
    876 : FFFF;
    877 : 0008;
    878 : 001A;
    879 : FFED;
    87A : FFD6;
    87B : FFDD;
    87C : FFFD;
    87D : FFD9;
    87E : FFE7;
    87F : 0009;
    880 : FFFA;
    881 : FFFA;
    882 : 0016;
    883 : 0028;
    884 : FFFC;
    885 : FFD8;
    886 : 009B;
    887 : FFFE;
    888 : FFC0;
    889 : FFCB;
    88A : 0067;
    88B : 001B;
    88C : FFE7;
    88D : FFEB;
    88E : 0033;
    88F : 0008;
    890 : 002B;
    891 : FFF4;
    892 : 002C;
    893 : 0033;
    894 : 001B;
    895 : 0013;
    896 : FFF7;
    897 : FFEA;
    898 : FFFD;
    899 : FFF8;
    89A : FFF7;
    89B : FFF5;
    89C : FFD3;
    89D : 001A;
    89E : 004C;
    89F : 0035;
    8A0 : 0030;
    8A1 : FFEB;
    8A2 : FFCA;
    8A3 : 0001;
    8A4 : 0003;
    8A5 : 0000;
    8A6 : FFD2;
    8A7 : FFDC;
    8A8 : FFC1;
    8A9 : 000A;
    8AA : 0033;
    8AB : 0051;
    8AC : 003F;
    8AD : 002B;
    8AE : 0039;
    8AF : 0046;
    8B0 : 0015;
    8B1 : 0009;
    8B2 : 001B;
    8B3 : FFFC;
    8B4 : 0006;
    8B5 : 0023;
    8B6 : 001A;
    8B7 : 000E;
    8B8 : FFDE;
    8B9 : 0060;
    8BA : 005E;
    8BB : 0048;
    8BC : 003B;
    8BD : 0042;
    8BE : FFB2;
    8BF : FFFC;
    8C0 : FFFE;
    8C1 : 0015;
    8C2 : 0021;
    8C3 : 003E;
    8C4 : 0041;
    8C5 : 0044;
    8C6 : 0002;
    8C7 : 0023;
    8C8 : 0006;
    8C9 : 0010;
    8CA : FFE7;
    8CB : FFDF;
    8CC : 0014;
    8CD : FFDB;
    8CE : FFF7;
    8CF : FFFD;
    8D0 : 001E;
    8D1 : 001B;
    8D2 : 0028;
    8D3 : FFE2;
    8D4 : 001F;
    8D5 : 007A;
    8D6 : 0091;
    8D7 : 006F;
    8D8 : 0043;
    8D9 : 00BD;
    8DA : 0015;
    8DB : 0005;
    8DC : FFED;
    8DD : 0000;
    8DE : 000C;
    8DF : 0054;
    8E0 : 0054;
    8E1 : 001D;
    8E2 : FFB8;
    8E3 : 0005;
    8E4 : FFF3;
    8E5 : FFEB;
    8E6 : FFFD;
    8E7 : FFF8;
    8E8 : FFBB;
    8E9 : FFFD;
    8EA : FFFE;
    8EB : FFE7;
    8EC : FFFC;
    8ED : FFDD;
    8EE : FFDF;
    8EF : FF9B;
    8F0 : FFFB;
    8F1 : 0000;
    8F2 : FFDA;
    8F3 : FFB2;
    8F4 : FF61;
    8F5 : 004D;
    8F6 : 0037;
    8F7 : FFFB;
    8F8 : FFEC;
    8F9 : FFFF;
    8FA : FFF7;
    8FB : FFFE;
    8FC : 0032;
    8FD : 0023;
    8FE : 0023;
    8FF : FFE3;
    900 : FFF0;
    901 : FFEC;
    902 : FFED;
    903 : FFCC;
    904 : FFFF;
    905 : FFCD;
    906 : FFD6;
    907 : FFDA;
    908 : FFDB;
    909 : FFC5;
    90A : FFB5;
    90B : FFBB;
    90C : FF94;
    90D : FFAA;
    90E : FF5A;
    90F : FFA8;
    910 : FFB7;
    911 : 000D;
    912 : FFFB;
    913 : FFFA;
    914 : 0004;
    915 : FFFF;
    916 : FFFD;
    917 : FFEE;
    918 : 000E;
    919 : 0003;
    91A : FFE3;
    91B : FFE5;
    91C : FFE0;
    91D : 0024;
    91E : FF99;
    91F : FFB0;
    920 : FFDD;
    921 : FFE0;
    922 : FF87;
    923 : 0002;
    924 : 0024;
    925 : FFC2;
    926 : 000F;
    927 : 003A;
    928 : 001E;
    929 : FFB7;
    92A : FFCB;
    92B : FFB3;
    92C : 0009;
    92D : FFFB;
    92E : FFFB;
    92F : FFF9;
    930 : 0006;
    931 : 0000;
    932 : 0008;
    933 : 0005;
    934 : 0001;
    935 : 000B;
    936 : 0000;
    937 : FFF5;
    938 : 000E;
    939 : FFF5;
    93A : FFFC;
    93B : 0006;
    93C : FFC3;
    93D : FFBE;
    93E : 001D;
    93F : 0005;
    940 : 0003;
    941 : 0001;
    942 : 0008;
    943 : FFF5;
    944 : 0010;
    945 : FFF6;
    946 : FFF1;
    947 : FFFB;
    948 : FFFF;
    949 : FFEA;
    94A : FFF6;
    94B : FFF9;
    94C : FFF9;
    94D : 0000;
    94E : FFFD;
    94F : 0005;
    950 : FFFE;
    951 : 0003;
    952 : FFAF;
    953 : FFA0;
    954 : FF9C;
    955 : FFA7;
    956 : FFBD;
    957 : FFB0;
    958 : FFB8;
    959 : FFC6;
    95A : 000C;
    95B : FFF4;
    95C : 0020;
    95D : FFFA;
    95E : FFC0;
    95F : FFCC;
    960 : FFC5;
    961 : FFDF;
    962 : FFE6;
    963 : FFFA;
    964 : 0003;
    965 : 0005;
    966 : 0004;
    967 : 0009;
    968 : FFFB;
    969 : FFFC;
    96A : FFF7;
    96B : FFF7;
    96C : 0008;
    96D : 0002;
    96E : FFB8;
    96F : FF6C;
    970 : FFA0;
    971 : 0026;
    972 : 000E;
    973 : FFEC;
    974 : FF78;
    975 : FF6E;
    976 : FF72;
    977 : FF9D;
    978 : FFE6;
    979 : 000B;
    97A : 0040;
    97B : 0025;
    97C : 003A;
    97D : 000D;
    97E : FFDA;
    97F : FFF3;
    980 : 0034;
    981 : 0032;
    982 : FFF5;
    983 : 000D;
    984 : 0004;
    985 : FFF7;
    986 : 0008;
    987 : FFFE;
    988 : 0029;
    989 : 003D;
    98A : 001B;
    98B : FFE3;
    98C : FFEA;
    98D : FFFB;
    98E : 001C;
    98F : 0019;
    990 : FFF0;
    991 : FFCC;
    992 : FFEE;
    993 : 0002;
    994 : FFE4;
    995 : FFE9;
    996 : FFE6;
    997 : FFD0;
    998 : FFB2;
    999 : FFF6;
    99A : FFE6;
    99B : 0022;
    99C : 004D;
    99D : FFED;
    99E : 0002;
    99F : FFF4;
    9A0 : 0000;
    9A1 : 001A;
    9A2 : 0042;
    9A3 : 0032;
    9A4 : FFF0;
    9A5 : FFE4;
    9A6 : 0021;
    9A7 : 001A;
    9A8 : FFEB;
    9A9 : FFFA;
    9AA : FFFD;
    9AB : FFF8;
    9AC : 0000;
    9AD : FFDB;
    9AE : 000F;
    9AF : FFF6;
    9B0 : FFEF;
    9B1 : FFF8;
    9B2 : 002D;
    9B3 : 0016;
    9B4 : 0006;
    9B5 : 0019;
    9B6 : 0033;
    9B7 : 002C;
    9B8 : 0077;
    9B9 : 008B;
    9BA : 0051;
    9BB : 000B;
    9BC : FFF4;
    9BD : FFFA;
    9BE : FFCB;
    9BF : FFB3;
    9C0 : FFE3;
    9C1 : FFD7;
    9C2 : FFF6;
    9C3 : 0019;
    9C4 : 001E;
    9C5 : 0036;
    9C6 : 0000;
    9C7 : 0025;
    9C8 : 002C;
    9C9 : 0028;
    9CA : FFEF;
    9CB : FFFD;
    9CC : 0015;
    9CD : 002A;
    9CE : 001A;
    9CF : 000D;
    9D0 : 0049;
    9D1 : 0022;
    9D2 : 0032;
    9D3 : 003A;
    9D4 : 0003;
    9D5 : 002C;
    9D6 : 0061;
    9D7 : FFF8;
    9D8 : FFFA;
    9D9 : 004B;
    9DA : 001D;
    9DB : FFAE;
    9DC : FFC2;
    9DD : FFE5;
    9DE : 0011;
    9DF : 0000;
    9E0 : 0042;
    9E1 : 004A;
    9E2 : 002E;
    9E3 : 001D;
    9E4 : 0035;
    9E5 : 0043;
    9E6 : 0033;
    9E7 : 0046;
    9E8 : 0045;
    9E9 : 0046;
    9EA : 000C;
    9EB : 0010;
    9EC : 0019;
    9ED : FFF5;
    9EE : FFE4;
    9EF : 001E;
    9F0 : 000B;
    9F1 : FFFA;
    9F2 : FFEF;
    9F3 : 0005;
    9F4 : FFFD;
    9F5 : 007E;
    9F6 : 0051;
    9F7 : 000E;
    9F8 : 000C;
    9F9 : FFD5;
    9FA : 002F;
    9FB : FFE2;
    9FC : 003B;
    9FD : 0010;
    9FE : 0028;
    9FF : 0015;
    A00 : 0028;
    A01 : 002F;
    A02 : 003A;
    A03 : 004A;
    A04 : 0041;
    A05 : 0014;
    A06 : FFF5;
    A07 : FFCB;
    A08 : FFF3;
    A09 : FFCA;
    A0A : FFD4;
    A0B : FFAE;
    A0C : FFD1;
    A0D : 0010;
    A0E : FFAC;
    A0F : 000E;
    A10 : FFFD;
    A11 : FFCE;
    A12 : 002B;
    A13 : 0032;
    A14 : 0036;
    A15 : 001B;
    A16 : 0002;
    A17 : FFF1;
    A18 : 001E;
    A19 : 001E;
    A1A : 0026;
    A1B : 0027;
    A1C : 0019;
    A1D : 0046;
    A1E : 0040;
    A1F : 0016;
    A20 : 0002;
    A21 : FFE7;
    A22 : 000F;
    A23 : 0003;
    A24 : FFCA;
    A25 : FFF2;
    A26 : FFFF;
    A27 : FFD7;
    A28 : FFBC;
    A29 : 001D;
    A2A : FFFE;
    A2B : 005F;
    A2C : FFFA;
    A2D : FFE6;
    A2E : FFEE;
    A2F : 001D;
    A30 : 0025;
    A31 : 0008;
    A32 : 002A;
    A33 : 001A;
    A34 : 002A;
    A35 : 003D;
    A36 : 000C;
    A37 : FFF6;
    A38 : 0003;
    A39 : FFEB;
    A3A : FFE7;
    A3B : FFDB;
    A3C : FFC5;
    A3D : 0009;
    A3E : 0004;
    A3F : 0006;
    A40 : FFFA;
    A41 : FFEF;
    A42 : 0014;
    A43 : 000D;
    A44 : FF78;
    A45 : FFC7;
    A46 : FFEA;
    A47 : FFD6;
    A48 : FFF1;
    A49 : FFCE;
    A4A : FFBF;
    A4B : 0065;
    A4C : 0025;
    A4D : 0010;
    A4E : 002F;
    A4F : 0038;
    A50 : 002F;
    A51 : FFF1;
    A52 : FFC7;
    A53 : FFA0;
    A54 : FF9D;
    A55 : FF69;
    A56 : FF92;
    A57 : FF93;
    A58 : FFDE;
    A59 : FFDE;
    A5A : 000E;
    A5B : 000E;
    A5C : 000F;
    A5D : FFF4;
    A5E : 002F;
    A5F : 002B;
    A60 : FFA2;
    A61 : FFE8;
    A62 : 0035;
    A63 : FFE6;
    A64 : FFFB;
    A65 : FFC1;
    A66 : FFD3;
    A67 : 000F;
    A68 : 002A;
    A69 : 0024;
    A6A : 0027;
    A6B : FFF5;
    A6C : FFE1;
    A6D : FFD1;
    A6E : FF8E;
    A6F : FF88;
    A70 : FF82;
    A71 : FFAB;
    A72 : FFF9;
    A73 : 000F;
    A74 : 001C;
    A75 : 001D;
    A76 : FFFD;
    A77 : 001A;
    A78 : 000E;
    A79 : FFFB;
    A7A : 002D;
    A7B : 000F;
    A7C : FFF6;
    A7D : 003A;
    A7E : 003D;
    A7F : FFB2;
    A80 : 0003;
    A81 : FFAE;
    A82 : FFFD;
    A83 : 0004;
    A84 : FFE2;
    A85 : FFEB;
    A86 : FFE0;
    A87 : FFC8;
    A88 : FFA2;
    A89 : FFBC;
    A8A : FFD6;
    A8B : FFF4;
    A8C : FFF4;
    A8D : 002F;
    A8E : 004E;
    A8F : 0022;
    A90 : 000A;
    A91 : 0016;
    A92 : 0005;
    A93 : 0003;
    A94 : 000A;
    A95 : FFDF;
    A96 : FFEA;
    A97 : FFCF;
    A98 : FFF9;
    A99 : FFCC;
    A9A : 0008;
    A9B : FFA6;
    A9C : FFC2;
    A9D : FFBD;
    A9E : FFC5;
    A9F : FFF9;
    AA0 : FFBE;
    AA1 : FFBB;
    AA2 : FFA4;
    AA3 : FFDC;
    AA4 : FFD6;
    AA5 : FFF8;
    AA6 : 0014;
    AA7 : 0047;
    AA8 : 0029;
    AA9 : 0054;
    AAA : 002C;
    AAB : FFFB;
    AAC : FFE2;
    AAD : FFFA;
    AAE : FFFF;
    AAF : FFE7;
    AB0 : 0027;
    AB1 : 0006;
    AB2 : FFFD;
    AB3 : FFB7;
    AB4 : 0001;
    AB5 : FFFB;
    AB6 : 006B;
    AB7 : FFF8;
    AB8 : FFB6;
    AB9 : 0051;
    ABA : FF9B;
    ABB : 0014;
    ABC : FFD8;
    ABD : FFA9;
    ABE : FFFC;
    ABF : 0017;
    AC0 : 0022;
    AC1 : 0028;
    AC2 : 0047;
    AC3 : 0039;
    AC4 : 002D;
    AC5 : 0047;
    AC6 : 0028;
    AC7 : FFFC;
    AC8 : 0003;
    AC9 : 000C;
    ACA : FFF8;
    ACB : FFC5;
    ACC : 0005;
    ACD : FFF3;
    ACE : FFFC;
    ACF : FFB1;
    AD0 : FFF3;
    AD1 : 002F;
    AD2 : 001E;
    AD3 : 0023;
    AD4 : FFB7;
    AD5 : 0042;
    AD6 : FF9B;
    AD7 : 001B;
    AD8 : FFFC;
    AD9 : FFE9;
    ADA : 0012;
    ADB : 001A;
    ADC : 001E;
    ADD : 0025;
    ADE : 0032;
    ADF : 0024;
    AE0 : 0016;
    AE1 : 0028;
    AE2 : 0010;
    AE3 : 0029;
    AE4 : 0000;
    AE5 : 0004;
    AE6 : FFFD;
    AE7 : 0001;
    AE8 : 0016;
    AE9 : 000A;
    AEA : 0000;
    AEB : FFD4;
    AEC : FFFF;
    AED : FFFE;
    AEE : FFFF;
    AEF : 0036;
    AF0 : FFED;
    AF1 : 005F;
    AF2 : 0027;
    AF3 : 0033;
    AF4 : 0022;
    AF5 : FFD4;
    AF6 : FFF7;
    AF7 : FFF5;
    AF8 : FFD2;
    AF9 : FFFE;
    AFA : FFF0;
    AFB : FFDE;
    AFC : 0024;
    AFD : 0031;
    AFE : 0016;
    AFF : 0022;
    B00 : 0011;
    B01 : 0022;
    B02 : 0022;
    B03 : 000C;
    B04 : 0020;
    B05 : 0016;
    B06 : 000B;
    B07 : FFC6;
    B08 : FFDE;
    B09 : 003B;
    B0A : 004B;
    B0B : 001B;
    B0C : FFF7;
    B0D : 006D;
    B0E : FFF8;
    B0F : 000C;
    B10 : 000F;
    B11 : FFF0;
    B12 : FFEA;
    B13 : FFBC;
    B14 : FFE4;
    B15 : FFD1;
    B16 : FFC2;
    B17 : FFC4;
    B18 : 0005;
    B19 : 0021;
    B1A : 0005;
    B1B : 003C;
    B1C : 000C;
    B1D : 0029;
    B1E : 002E;
    B1F : FFFC;
    B20 : 001E;
    B21 : 0043;
    B22 : FFFA;
    B23 : FFB7;
    B24 : 0006;
    B25 : 000B;
    B26 : 0001;
    B27 : FFDE;
    B28 : 0041;
    B29 : 007C;
    B2A : 0007;
    B2B : 000E;
    B2C : 002D;
    B2D : 0035;
    B2E : 000A;
    B2F : FFB8;
    B30 : FFB3;
    B31 : FFAF;
    B32 : FFD5;
    B33 : FFD5;
    B34 : FF9F;
    B35 : FFE3;
    B36 : 0000;
    B37 : 0020;
    B38 : 0018;
    B39 : 0015;
    B3A : 0019;
    B3B : 002B;
    B3C : 0011;
    B3D : 0037;
    B3E : FFEE;
    B3F : FFE1;
    B40 : 0030;
    B41 : FFF6;
    B42 : 0045;
    B43 : 004A;
    B44 : FFA5;
    B45 : FFF4;
    B46 : 0033;
    B47 : FFEC;
    B48 : 0025;
    B49 : 0027;
    B4A : FFDF;
    B4B : FFBF;
    B4C : FFD2;
    B4D : FFC9;
    B4E : FFCE;
    B4F : FFBB;
    B50 : FF91;
    B51 : FFBA;
    B52 : FFC3;
    B53 : FFCD;
    B54 : FFF1;
    B55 : 0022;
    B56 : 0026;
    B57 : 0009;
    B58 : 001D;
    B59 : 002F;
    B5A : 0000;
    B5B : 0003;
    B5C : 0007;
    B5D : 0017;
    B5E : 0049;
    B5F : 0042;
    B60 : FFF9;
    B61 : FFF6;
    B62 : 0046;
    B63 : 0045;
    B64 : 003D;
    B65 : 002D;
    B66 : 000D;
    B67 : FFF8;
    B68 : FFD2;
    B69 : FFE1;
    B6A : FFD7;
    B6B : FFE8;
    B6C : FFDA;
    B6D : FFEB;
    B6E : FFDA;
    B6F : FFED;
    B70 : FFF9;
    B71 : FFF9;
    B72 : 0007;
    B73 : 0013;
    B74 : 0020;
    B75 : 0032;
    B76 : 0030;
    B77 : 0003;
    B78 : FFD9;
    B79 : FFDA;
    B7A : FFEE;
    B7B : FFBB;
    B7C : FFB2;
    B7D : 0010;
    B7E : 0059;
    B7F : 0032;
    B80 : 003B;
    B81 : 0029;
    B82 : 0035;
    B83 : 002D;
    B84 : 000F;
    B85 : FFF7;
    B86 : 0015;
    B87 : 000E;
    B88 : 001F;
    B89 : 0001;
    B8A : FFF2;
    B8B : FFE7;
    B8C : FFFF;
    B8D : FFE0;
    B8E : FFF0;
    B8F : 000C;
    B90 : 001D;
    B91 : 0046;
    B92 : FFE9;
    B93 : FFEE;
    B94 : FFD1;
    B95 : FFAA;
    B96 : FFCF;
    B97 : 0001;
    B98 : FFC4;
    B99 : FFD4;
    B9A : 0004;
    B9B : 0011;
    B9C : 0025;
    B9D : FFDF;
    B9E : 0003;
    B9F : 001B;
    BA0 : 001C;
    BA1 : FFDF;
    BA2 : 0012;
    BA3 : 0032;
    BA4 : 000A;
    BA5 : FFDF;
    BA6 : FFF1;
    BA7 : FFE1;
    BA8 : FFEF;
    BA9 : FFEB;
    BAA : FFD0;
    BAB : FFE6;
    BAC : 0016;
    BAD : FFEB;
    BAE : 000C;
    BAF : FFEB;
    BB0 : FFFB;
    BB1 : FFD2;
    BB2 : FFCC;
    BB3 : 000F;
    BB4 : FFF2;
    BB5 : FFFD;
    BB6 : 0015;
    BB7 : 004E;
    BB8 : 0058;
    BB9 : 0023;
    BBA : 0016;
    BBB : 003D;
    BBC : 003B;
    BBD : 000C;
    BBE : 000E;
    BBF : 001F;
    BC0 : FFEF;
    BC1 : 0015;
    BC2 : 0000;
    BC3 : 0004;
    BC4 : FFD6;
    BC5 : FFC0;
    BC6 : FFE8;
    BC7 : FFEF;
    BC8 : FFF8;
    BC9 : FFD1;
    BCA : 002D;
    BCB : 0068;
    BCC : 0011;
    BCD : FFF1;
    BCE : FFBB;
    BCF : 0009;
    BD0 : 0005;
    BD1 : FFFF;
    BD2 : FFD6;
    BD3 : 0033;
    BD4 : 005C;
    BD5 : 001D;
    BD6 : 0023;
    BD7 : 0023;
    BD8 : 0015;
    BD9 : 0023;
    BDA : 0023;
    BDB : 0032;
    BDC : FFFA;
    BDD : 001C;
    BDE : FFFA;
    BDF : FFEA;
    BE0 : FFE6;
    BE1 : FFDA;
    BE2 : FFE8;
    BE3 : 0000;
    BE4 : 0032;
    BE5 : 0034;
    BE6 : 0041;
    BE7 : 004C;
    BE8 : 0002;
    BE9 : FFA7;
    BEA : FF9C;
    BEB : 0001;
    BEC : 000D;
    BED : FFF1;
    BEE : 006D;
    BEF : FFB9;
    BF0 : 002C;
    BF1 : 007B;
    BF2 : 003A;
    BF3 : 0054;
    BF4 : 005E;
    BF5 : 0056;
    BF6 : 0069;
    BF7 : 002F;
    BF8 : 0013;
    BF9 : 001F;
    BFA : 0022;
    BFB : 001A;
    BFC : FFF3;
    BFD : FFCE;
    BFE : FFF7;
    BFF : FFFF;
    C00 : FFEE;
    C01 : FFB5;
    C02 : FF9F;
    C03 : FFE8;
    C04 : FFEA;
    C05 : FFB6;
    C06 : FFC2;
    C07 : 0002;
    C08 : FFFA;
    C09 : FFFC;
    C0A : 0003;
    C0B : 0037;
    C0C : 0020;
    C0D : 0037;
    C0E : 0056;
    C0F : 0084;
    C10 : 0059;
    C11 : 0071;
    C12 : 0080;
    C13 : 0083;
    C14 : 003C;
    C15 : 0062;
    C16 : 007B;
    C17 : 0011;
    C18 : 0018;
    C19 : 0042;
    C1A : 003D;
    C1B : FFE0;
    C1C : 0041;
    C1D : 0020;
    C1E : 0044;
    C1F : 0057;
    C20 : 0054;
    C21 : 0001;
    C22 : 0000;
    C23 : FFF8;
    C24 : 000A;
    C25 : FFFB;
    C26 : 0009;
    C27 : FFFE;
    C28 : FFFD;
    C29 : FFF0;
    C2A : 0013;
    C2B : 0019;
    C2C : 0019;
    C2D : 0036;
    C2E : 0060;
    C2F : 0047;
    C30 : 0027;
    C31 : 0030;
    C32 : 00AC;
    C33 : 0001;
    C34 : FFB7;
    C35 : FF94;
    C36 : FFC2;
    C37 : 000B;
    C38 : 0026;
    C39 : 0013;
    C3A : 0001;
    C3B : FFE8;
    C3C : FFFE;
    C3D : 0002;
    C3E : FFFA;
    C3F : FFF7;
    C40 : FFEC;
    C41 : FFF2;
    C42 : FFFC;
    C43 : FFFD;
    C44 : 0002;
    C45 : 0003;
    C46 : 0004;
    C47 : FFF7;
    C48 : 0006;
    C49 : 0000;
    C4A : FFFC;
    C4B : FFF4;
    C4C : 0005;
    C4D : 000D;
    C4E : 0005;
    C4F : FFF4;
    C50 : 0008;
    C51 : 000A;
    C52 : 0013;
    C53 : 000C;
    C54 : 0003;
    C55 : FFFD;
    C56 : 0004;
    C57 : FFF1;
    C58 : 0005;
    C59 : FFFE;
    C5A : 0001;
    C5B : 000C;
    C5C : 0002;
    C5D : FFF6;
    C5E : FFFD;
    C5F : FFFA;
    C60 : 0019;
    C61 : 0002;
    C62 : 000C;
    C63 : 0013;
    C64 : 0005;
    C65 : FFFE;
    C66 : 0000;
    C67 : 0013;
    C68 : FFF8;
    C69 : 0015;
    C6A : 001B;
    C6B : 0016;
    C6C : 0002;
    C6D : FFF3;
    C6E : 0005;
    C6F : 0017;
    C70 : 000A;
    C71 : 0006;
    C72 : 0009;
    C73 : FFFE;
    C74 : FFF3;
    C75 : 0003;
    C76 : FFF8;
    C77 : FFFB;
    C78 : 0006;
    C79 : FFF2;
    C7A : FFF7;
    C7B : 0000;
    C7C : 0003;
    C7D : 0002;
    C7E : 0017;
    C7F : 0010;
    C80 : FFC3;
    C81 : FFA2;
    C82 : FFC8;
    C83 : 0009;
    C84 : FFD7;
    C85 : 002D;
    C86 : FFEC;
    C87 : FFB6;
    C88 : FFDB;
    C89 : 0025;
    C8A : FFF4;
    C8B : FFF3;
    C8C : FFD8;
    C8D : FFC1;
    C8E : FFB2;
    C8F : FFC1;
    C90 : FFF4;
    C91 : FFFC;
    C92 : 000C;
    C93 : FFF1;
    C94 : 0005;
    C95 : FFFE;
    C96 : 0001;
    C97 : FFEF;
    C98 : FFFD;
    C99 : FFD8;
    C9A : FFD0;
    C9B : FFA4;
    C9C : FFB9;
    C9D : FFD3;
    C9E : FFEF;
    C9F : FFBF;
    CA0 : 0032;
    CA1 : 0081;
    CA2 : 0060;
    CA3 : 002A;
    CA4 : 0045;
    CA5 : 0011;
    CA6 : 0019;
    CA7 : 0067;
    CA8 : FFDB;
    CA9 : FFAD;
    CAA : FFC1;
    CAB : FFE0;
    CAC : 0073;
    CAD : 0018;
    CAE : FFE6;
    CAF : FFFD;
    CB0 : 0009;
    CB1 : FFFF;
    CB2 : FFB8;
    CB3 : 001B;
    CB4 : 001D;
    CB5 : 0006;
    CB6 : FFF4;
    CB7 : FFE8;
    CB8 : 0017;
    CB9 : 001E;
    CBA : FFF5;
    CBB : 001A;
    CBC : 0002;
    CBD : FFF6;
    CBE : FFD3;
    CBF : 0011;
    CC0 : 0008;
    CC1 : FFFD;
    CC2 : FFEE;
    CC3 : FFF9;
    CC4 : 0000;
    CC5 : 003A;
    CC6 : 0048;
    CC7 : 0013;
    CC8 : FFB0;
    CC9 : 0005;
    CCA : 0058;
    CCB : FFFE;
    CCC : 0007;
    CCD : 0004;
    CCE : FFD3;
    CCF : 0042;
    CD0 : 000D;
    CD1 : FFF5;
    CD2 : FFD1;
    CD3 : 000F;
    CD4 : 0036;
    CD5 : 000E;
    CD6 : 003F;
    CD7 : 0016;
    CD8 : 0008;
    CD9 : 001F;
    CDA : 0010;
    CDB : FFD0;
    CDC : FFFF;
    CDD : FFF3;
    CDE : 000D;
    CDF : 000B;
    CE0 : FFF7;
    CE1 : 001F;
    CE2 : 0028;
    CE3 : 0033;
    CE4 : FFDD;
    CE5 : FFD9;
    CE6 : FFB0;
    CE7 : FFA6;
    CE8 : FFF1;
    CE9 : 0014;
    CEA : 002F;
    CEB : 0039;
    CEC : 001C;
    CED : FFF3;
    CEE : FFFA;
    CEF : 002A;
    CF0 : 0000;
    CF1 : 000B;
    CF2 : 0044;
    CF3 : 000C;
    CF4 : 0025;
    CF5 : 002F;
    CF6 : 002A;
    CF7 : FFFE;
    CF8 : FFE9;
    CF9 : 0011;
    CFA : 0020;
    CFB : 000A;
    CFC : 0010;
    CFD : 0018;
    CFE : 003A;
    CFF : 0018;
    D00 : FFF8;
    D01 : FFFD;
    D02 : FFF2;
    D03 : FFE4;
    D04 : 0002;
    D05 : FFFF;
    D06 : FFC3;
    D07 : FFA2;
    D08 : FFE9;
    D09 : 0031;
    D0A : 0018;
    D0B : 0041;
    D0C : 0017;
    D0D : 003B;
    D0E : 002F;
    D0F : 0036;
    D10 : 0044;
    D11 : 0042;
    D12 : 0056;
    D13 : 001A;
    D14 : 0044;
    D15 : 002F;
    D16 : 0046;
    D17 : 0053;
    D18 : 0031;
    D19 : 002B;
    D1A : FFF9;
    D1B : 000C;
    D1C : 0001;
    D1D : 0000;
    D1E : 001C;
    D1F : FFD2;
    D20 : FFEF;
    D21 : FFD8;
    D22 : FFDA;
    D23 : FF91;
    D24 : FFEC;
    D25 : FFEA;
    D26 : FFEB;
    D27 : 0014;
    D28 : 0008;
    D29 : 0010;
    D2A : 0014;
    D2B : 0026;
    D2C : 0068;
    D2D : 0049;
    D2E : 004C;
    D2F : 002D;
    D30 : 0043;
    D31 : 001D;
    D32 : 000C;
    D33 : 000A;
    D34 : 001D;
    D35 : 0004;
    D36 : 0017;
    D37 : 002A;
    D38 : 0009;
    D39 : FFB0;
    D3A : 0029;
    D3B : FFBD;
    D3C : FFF2;
    D3D : FFCD;
    D3E : 0013;
    D3F : FFC2;
    D40 : 0027;
    D41 : FFF3;
    D42 : FFD6;
    D43 : FFF7;
    D44 : FFE9;
    D45 : 0006;
    D46 : FFF4;
    D47 : FFF6;
    D48 : 0021;
    D49 : 0048;
    D4A : 001C;
    D4B : FFF2;
    D4C : FFE2;
    D4D : FFE2;
    D4E : FFF5;
    D4F : FFFD;
    D50 : FFDF;
    D51 : 0007;
    D52 : 0014;
    D53 : 001A;
    D54 : 0025;
    D55 : 0041;
    D56 : FFD1;
    D57 : 0063;
    D58 : FFED;
    D59 : FFB5;
    D5A : 0023;
    D5B : FFF7;
    D5C : FFFE;
    D5D : 0009;
    D5E : FFEE;
    D5F : FFD0;
    D60 : FFF0;
    D61 : 0008;
    D62 : FFFE;
    D63 : 0001;
    D64 : 0018;
    D65 : 0016;
    D66 : FFC5;
    D67 : FF9C;
    D68 : FFBA;
    D69 : FFC8;
    D6A : FFD9;
    D6B : FFBB;
    D6C : FFE5;
    D6D : FFFB;
    D6E : FFF4;
    D6F : FFED;
    D70 : 003A;
    D71 : 0023;
    D72 : 008E;
    D73 : 0059;
    D74 : FFBA;
    D75 : 0025;
    D76 : FFB4;
    D77 : FFD4;
    D78 : 0021;
    D79 : FFB4;
    D7A : FFD8;
    D7B : FFD1;
    D7C : FFF7;
    D7D : FFF3;
    D7E : 0005;
    D7F : 0023;
    D80 : 0010;
    D81 : FFCE;
    D82 : FF89;
    D83 : FF9B;
    D84 : FFA9;
    D85 : FFEF;
    D86 : 0009;
    D87 : FFD9;
    D88 : FFC3;
    D89 : FFC0;
    D8A : FFD1;
    D8B : 0008;
    D8C : 0041;
    D8D : 0011;
    D8E : 0079;
    D8F : 003B;
    D90 : FFCC;
    D91 : 0043;
    D92 : 0007;
    D93 : FFE7;
    D94 : 0021;
    D95 : FFE8;
    D96 : 000D;
    D97 : FFED;
    D98 : 002D;
    D99 : 000E;
    D9A : 0022;
    D9B : 001A;
    D9C : FFE1;
    D9D : FFB2;
    D9E : FFB6;
    D9F : FFD6;
    DA0 : FFD0;
    DA1 : FFE3;
    DA2 : FFF2;
    DA3 : FFB6;
    DA4 : FFE1;
    DA5 : FFE0;
    DA6 : FFB7;
    DA7 : FFF2;
    DA8 : FFFF;
    DA9 : FFDC;
    DAA : 0043;
    DAB : 004B;
    DAC : 0005;
    DAD : FFE5;
    DAE : FFE2;
    DAF : 0055;
    DB0 : 0002;
    DB1 : FFCE;
    DB2 : 001E;
    DB3 : 0000;
    DB4 : FFEE;
    DB5 : FFFE;
    DB6 : FFED;
    DB7 : FFE1;
    DB8 : FFA6;
    DB9 : FFC8;
    DBA : 000B;
    DBB : FFD8;
    DBC : FFB5;
    DBD : FFD5;
    DBE : FFD6;
    DBF : FFC2;
    DC0 : FFB4;
    DC1 : FFFD;
    DC2 : FFA7;
    DC3 : FFE6;
    DC4 : 0024;
    DC5 : FFC3;
    DC6 : FFC3;
    DC7 : 0019;
    DC8 : 0047;
    DC9 : FFC2;
    DCA : FFE8;
    DCB : 001F;
    DCC : 0001;
    DCD : FFCE;
    DCE : FFDC;
    DCF : 0017;
    DD0 : 0005;
    DD1 : FFF1;
    DD2 : FFE9;
    DD3 : FFC7;
    DD4 : FFCA;
    DD5 : FFD2;
    DD6 : FFEF;
    DD7 : FFF9;
    DD8 : FFBC;
    DD9 : FFD4;
    DDA : FFCB;
    DDB : FFBC;
    DDC : 0003;
    DDD : 0018;
    DDE : FFD9;
    DDF : FFF5;
    DE0 : 001B;
    DE1 : FFB2;
    DE2 : FFE6;
    DE3 : 0009;
    DE4 : 0047;
    DE5 : FFD9;
    DE6 : 0004;
    DE7 : 0009;
    DE8 : FFE5;
    DE9 : 001F;
    DEA : FFF0;
    DEB : 0005;
    DEC : 0015;
    DED : FFF2;
    DEE : FFFD;
    DEF : FFEB;
    DF0 : FFF7;
    DF1 : FFB9;
    DF2 : FFB5;
    DF3 : FFD1;
    DF4 : FFF3;
    DF5 : FFE0;
    DF6 : FFDE;
    DF7 : FFB7;
    DF8 : 0013;
    DF9 : 0028;
    DFA : FFD6;
    DFB : 0008;
    DFC : FFF3;
    DFD : FFBF;
    DFE : 0025;
    DFF : 001E;
    E00 : FFFA;
    E01 : FFDF;
    E02 : FFBB;
    E03 : 0001;
    E04 : FFD9;
    E05 : 0017;
    E06 : FFE2;
    E07 : FFF1;
    E08 : 001F;
    E09 : 0007;
    E0A : 000A;
    E0B : FFEA;
    E0C : FFE6;
    E0D : FFE5;
    E0E : FFCD;
    E0F : FFE0;
    E10 : FFBF;
    E11 : FFAE;
    E12 : FFC8;
    E13 : FFFE;
    E14 : FFF6;
    E15 : 001A;
    E16 : FFF7;
    E17 : FFD9;
    E18 : FFF3;
    E19 : FFA8;
    E1A : FFB2;
    E1B : 0021;
    E1C : 0005;
    E1D : FFE4;
    E1E : FF96;
    E1F : 0020;
    E20 : 000D;
    E21 : FFF5;
    E22 : FFE9;
    E23 : FFF9;
    E24 : FFF0;
    E25 : FFF1;
    E26 : 0008;
    E27 : FFF0;
    E28 : FFFB;
    E29 : FFFF;
    E2A : FFF8;
    E2B : FFCE;
    E2C : FF9E;
    E2D : FFC8;
    E2E : FFE7;
    E2F : 0006;
    E30 : 0003;
    E31 : FFFB;
    E32 : 0001;
    E33 : 0009;
    E34 : FFD0;
    E35 : FFF5;
    E36 : FF80;
    E37 : FFC2;
    E38 : 0001;
    E39 : FFBD;
    E3A : FF8D;
    E3B : FFD5;
    E3C : 001A;
    E3D : FFD6;
    E3E : FFEB;
    E3F : FFF9;
    E40 : FFDC;
    E41 : FFE7;
    E42 : FFE2;
    E43 : FFBB;
    E44 : FFCF;
    E45 : FFC0;
    E46 : FFAF;
    E47 : FF98;
    E48 : FFB6;
    E49 : FFDA;
    E4A : FFE5;
    E4B : 000D;
    E4C : 001F;
    E4D : FFFD;
    E4E : 0002;
    E4F : FFF0;
    E50 : FFC3;
    E51 : FFDF;
    E52 : FF9C;
    E53 : FF95;
    E54 : 000C;
    E55 : FFBE;
    E56 : 0053;
    E57 : FFB3;
    E58 : 000A;
    E59 : FFCC;
    E5A : FFF7;
    E5B : FFFC;
    E5C : FFE4;
    E5D : FFBB;
    E5E : FFBC;
    E5F : FFDD;
    E60 : FFDE;
    E61 : FFAA;
    E62 : FFAA;
    E63 : FFDB;
    E64 : FFF6;
    E65 : FFFE;
    E66 : FFE2;
    E67 : 0005;
    E68 : 0037;
    E69 : 001C;
    E6A : 0006;
    E6B : FFF2;
    E6C : FFE3;
    E6D : FFCF;
    E6E : FFB8;
    E6F : FFBA;
    E70 : 000E;
    E71 : FFED;
    E72 : 0024;
    E73 : FFF5;
    E74 : FFF5;
    E75 : FFF1;
    E76 : FFE5;
    E77 : FFE4;
    E78 : FFE1;
    E79 : FFF8;
    E7A : FFE6;
    E7B : FFFB;
    E7C : 000E;
    E7D : 000B;
    E7E : 0022;
    E7F : 003B;
    E80 : 0026;
    E81 : 000F;
    E82 : 0001;
    E83 : 000D;
    E84 : 001D;
    E85 : 0014;
    E86 : 0014;
    E87 : 0005;
    E88 : FFE6;
    E89 : 0027;
    E8A : 0048;
    E8B : 0012;
    E8C : 0008;
    E8D : FFD7;
    E8E : 0028;
    E8F : FFE7;
    E90 : 0010;
    E91 : FFCF;
    E92 : FFD2;
    E93 : FFDE;
    E94 : 000B;
    E95 : FFFF;
    E96 : 000B;
    E97 : 0043;
    E98 : 0039;
    E99 : 004E;
    E9A : 0066;
    E9B : 005F;
    E9C : 002F;
    E9D : 0006;
    E9E : 002F;
    E9F : 0025;
    EA0 : 000F;
    EA1 : 0015;
    EA2 : 0018;
    EA3 : 0054;
    EA4 : 0076;
    EA5 : 0013;
    EA6 : 0034;
    EA7 : FFF8;
    EA8 : 0001;
    EA9 : FFDF;
    EAA : 0038;
    EAB : FFF9;
    EAC : FFE1;
    EAD : 0011;
    EAE : 001D;
    EAF : FFED;
    EB0 : 0035;
    EB1 : 0031;
    EB2 : 0017;
    EB3 : 0046;
    EB4 : 003A;
    EB5 : 004B;
    EB6 : 004A;
    EB7 : 0045;
    EB8 : 0034;
    EB9 : 0030;
    EBA : 003C;
    EBB : 0015;
    EBC : 0026;
    EBD : 0010;
    EBE : 0032;
    EBF : 004C;
    EC0 : FFEF;
    EC1 : FFD4;
    EC2 : 0083;
    EC3 : 000B;
    EC4 : FFF2;
    EC5 : FFFB;
    EC6 : FFEF;
    EC7 : FFEA;
    EC8 : 0011;
    EC9 : 0035;
    ECA : 002E;
    ECB : 002D;
    ECC : 0021;
    ECD : 0042;
    ECE : 003B;
    ECF : 0047;
    ED0 : 0023;
    ED1 : 0031;
    ED2 : 0037;
    ED3 : 0035;
    ED4 : 0032;
    ED5 : 0039;
    ED6 : 001C;
    ED7 : 000F;
    ED8 : 0023;
    ED9 : FFF5;
    EDA : 003A;
    EDB : 0003;
    EDC : FFF0;
    EDD : FFDF;
    EDE : 0079;
    EDF : 0014;
    EE0 : 0005;
    EE1 : FFFB;
    EE2 : FFB7;
    EE3 : 0012;
    EE4 : 0067;
    EE5 : 0060;
    EE6 : 0031;
    EE7 : 0059;
    EE8 : 0056;
    EE9 : 005C;
    EEA : 002C;
    EEB : 001B;
    EEC : 0044;
    EED : 0037;
    EEE : 0033;
    EEF : 002B;
    EF0 : 0016;
    EF1 : 006C;
    EF2 : 0078;
    EF3 : 0001;
    EF4 : 0012;
    EF5 : 001B;
    EF6 : 0040;
    EF7 : FFDE;
    EF8 : 005B;
    EF9 : 001C;
    EFA : FFEC;
    EFB : 0003;
    EFC : FFFA;
    EFD : FFEF;
    EFE : FFBC;
    EFF : 004F;
    F00 : 0069;
    F01 : FFEF;
    F02 : 0018;
    F03 : 0050;
    F04 : 008A;
    F05 : 0061;
    F06 : 0037;
    F07 : 0046;
    F08 : 0059;
    F09 : 003A;
    F0A : 0009;
    F0B : 0054;
    F0C : 004B;
    F0D : 0038;
    F0E : 004F;
    F0F : 0091;
    F10 : 0054;
    F11 : 0055;
    F12 : 007A;
    F13 : 005F;
    F14 : 0063;
    F15 : 0006;
    F16 : FFF9;
    F17 : 0011;
    F18 : 0009;
    F19 : 0006;
    F1A : 0006;
    F1B : FFFA;
    F1C : 006D;
    F1D : FFC3;
    F1E : FFE3;
    F1F : 0009;
    F20 : FFFD;
    F21 : FFDD;
    F22 : 0030;
    F23 : 0022;
    F24 : 0036;
    F25 : 002B;
    F26 : 0037;
    F27 : 0091;
    F28 : 0076;
    F29 : FFB5;
    F2A : 000A;
    F2B : 0060;
    F2C : 0026;
    F2D : 001D;
    F2E : 0079;
    F2F : FFFB;
    F30 : FFFD;
    F31 : 000B;
    F32 : FFFF;
    F33 : 0007;
    F34 : 0007;
    F35 : 0014;
    F36 : 000A;
    F37 : FFF7;
    F38 : FFF8;
    F39 : 0007;
    F3A : FFF7;
    F3B : 000C;
    F3C : 000D;
    F3D : 0037;
    F3E : 0063;
    F3F : 007D;
    F40 : 00C7;
    F41 : 00B0;
    F42 : 0072;
    F43 : 0083;
    F44 : 007C;
    F45 : 0018;
    F46 : FFBB;
    F47 : FFD1;
    F48 : FFFA;
    F49 : FFD9;
    F4A : FFD4;
    F4B : FFEC;
    F4C : 0004;
    F4D : FFFF;
    F4E : FFFD;
    F4F : FFFC;
    F50 : 0005;
    F51 : 0008;
    F52 : 0012;
    F53 : FFF2;
    F54 : FFFC;
    F55 : FFFA;
    F56 : 0005;
    F57 : 0011;
    F58 : 0006;
    F59 : 0003;
    F5A : 0004;
    F5B : FFF5;
    F5C : 000C;
    F5D : 0017;
    F5E : 000B;
    F5F : 000F;
    F60 : 0003;
    F61 : 0007;
    F62 : 000B;
    F63 : 0005;
    F64 : 000A;
    F65 : FFFB;
    F66 : FFF7;
    F67 : 0004;
    F68 : 0003;
    F69 : 0015;
    F6A : FFFF;
    F6B : FFFE;
    F6C : FFFE;
    F6D : 0002;
    F6E : 000A;
    F6F : 0003;
    F70 : 0001;
    F71 : FFFF;
    F72 : FFC5;
    F73 : FFC1;
    F74 : FFD2;
    F75 : FFE9;
    F76 : FFB5;
    F77 : 001B;
    F78 : 0017;
    F79 : FFF9;
    F7A : 004C;
    F7B : 0057;
    F7C : 0061;
    F7D : 0047;
    F7E : FFBB;
    F7F : FFD1;
    F80 : FFDA;
    F81 : FFF7;
    F82 : FFDE;
    F83 : FFD6;
    F84 : 0000;
    F85 : 000D;
    F86 : 0000;
    F87 : 0009;
    F88 : FFF9;
    F89 : 0008;
    F8A : 000C;
    F8B : 002C;
    F8C : 001A;
    F8D : FFFF;
    F8E : FFED;
    F8F : FFAC;
    F90 : FFAE;
    F91 : 0019;
    F92 : 0046;
    F93 : 001A;
    F94 : FFC3;
    F95 : FFED;
    F96 : FFD2;
    F97 : FFCA;
    F98 : FFC9;
    F99 : FF74;
    F9A : FF6F;
    F9B : FFE3;
    F9C : FFF2;
    F9D : FFF2;
    F9E : FFD5;
    F9F : FFF3;
    FA0 : 0006;
    FA1 : 0001;
    FA2 : 0003;
    FA3 : FFED;
    FA4 : FFFA;
    FA5 : FFF7;
    FA6 : 006F;
    FA7 : 0048;
    FA8 : FFFD;
    FA9 : FFFC;
    FAA : FFD4;
    FAB : 001E;
    FAC : 0004;
    FAD : FFF8;
    FAE : 0007;
    FAF : FFF9;
    FB0 : FFF9;
    FB1 : FFCD;
    FB2 : FF95;
    FB3 : FFB9;
    FB4 : FFCF;
    FB5 : FFB5;
    FB6 : FF8F;
    FB7 : FFCA;
    FB8 : FFAB;
    FB9 : FF97;
    FBA : FFBE;
    FBB : FFD9;
    FBC : FFF4;
    FBD : FFF8;
    FBE : 0003;
    FBF : 0004;
    FC0 : 0015;
    FC1 : 0005;
    FC2 : 005D;
    FC3 : 0061;
    FC4 : 001C;
    FC5 : 0005;
    FC6 : 0012;
    FC7 : FFD7;
    FC8 : 001C;
    FC9 : FFDD;
    FCA : FFFE;
    FCB : FFFB;
    FCC : 000C;
    FCD : FFFC;
    FCE : FFBA;
    FCF : FFBB;
    FD0 : FFB3;
    FD1 : FFAE;
    FD2 : FFB4;
    FD3 : FF9E;
    FD4 : FF60;
    FD5 : FFE1;
    FD6 : FF93;
    FD7 : FFED;
    FD8 : 0013;
    FD9 : 0025;
    FDA : FFE6;
    FDB : FFF1;
    FDC : FFFE;
    FDD : 0003;
    FDE : 005D;
    FDF : 001A;
    FE0 : 0034;
    FE1 : 0032;
    FE2 : 001B;
    FE3 : 001A;
    FE4 : 0017;
    FE5 : 0001;
    FE6 : FFE5;
    FE7 : 0011;
    FE8 : 0026;
    FE9 : 0012;
    FEA : FFFD;
    FEB : FFFD;
    FEC : FFD7;
    FED : FFA3;
    FEE : FFC8;
    FEF : FFA4;
    FF0 : FF69;
    FF1 : FFB3;
    FF2 : FFA9;
    FF3 : FFDA;
    FF4 : 0006;
    FF5 : 0025;
    FF6 : FFB5;
    FF7 : FFE3;
    FF8 : FFFA;
    FF9 : 001B;
    FFA : FFF5;
    FFB : 0042;
    FFC : 0019;
    FFD : FFED;
    FFE : 0043;
    FFF : 0014;
    1000 : 0014;
    1001 : 0000;
    1002 : 0015;
    1003 : 0020;
    1004 : 001A;
    1005 : 0010;
    1006 : 0013;
    1007 : FFE4;
    1008 : FFFA;
    1009 : FFE9;
    100A : FFEA;
    100B : FF9A;
    100C : FFB6;
    100D : 0027;
    100E : FFB3;
    100F : FFE7;
    1010 : FFA5;
    1011 : FF97;
    1012 : FFDB;
    1013 : FFDF;
    1014 : 0028;
    1015 : 0068;
    1016 : 003B;
    1017 : 0076;
    1018 : 0045;
    1019 : FFEC;
    101A : 0031;
    101B : 001D;
    101C : FFF5;
    101D : 0019;
    101E : 000E;
    101F : 0009;
    1020 : 0030;
    1021 : 002D;
    1022 : 001B;
    1023 : 0025;
    1024 : 0011;
    1025 : FFFC;
    1026 : FFD6;
    1027 : FFBC;
    1028 : FFCA;
    1029 : FFCE;
    102A : FFA5;
    102B : FFB4;
    102C : FF50;
    102D : FF71;
    102E : FF9C;
    102F : FFC8;
    1030 : 0002;
    1031 : 0080;
    1032 : 0012;
    1033 : 001E;
    1034 : 002C;
    1035 : 000F;
    1036 : 001C;
    1037 : 0031;
    1038 : 0002;
    1039 : 001E;
    103A : 004A;
    103B : FFFE;
    103C : 001D;
    103D : 002D;
    103E : 003B;
    103F : 0044;
    1040 : 001C;
    1041 : 000A;
    1042 : FFFC;
    1043 : FFC8;
    1044 : FFD2;
    1045 : FFC0;
    1046 : FFCD;
    1047 : FFA4;
    1048 : FF5F;
    1049 : FF6E;
    104A : FF90;
    104B : FFBD;
    104C : 0015;
    104D : 007C;
    104E : 001C;
    104F : 002B;
    1050 : 0056;
    1051 : 003D;
    1052 : 0015;
    1053 : 0003;
    1054 : FFFB;
    1055 : 0010;
    1056 : 0021;
    1057 : 000A;
    1058 : 003A;
    1059 : 0050;
    105A : 0076;
    105B : 0069;
    105C : 002B;
    105D : 0027;
    105E : FFFC;
    105F : FFD8;
    1060 : FFBB;
    1061 : FFCB;
    1062 : FFDE;
    1063 : FF73;
    1064 : FF97;
    1065 : FF74;
    1066 : FF8D;
    1067 : FFFE;
    1068 : 0029;
    1069 : 006B;
    106A : 005B;
    106B : 0025;
    106C : 0033;
    106D : 0008;
    106E : 0000;
    106F : FFF8;
    1070 : FFF6;
    1071 : FFFF;
    1072 : 001E;
    1073 : 0019;
    1074 : 000F;
    1075 : 0062;
    1076 : 0087;
    1077 : 0047;
    1078 : 002F;
    1079 : 0005;
    107A : FFEC;
    107B : FFE9;
    107C : FFD2;
    107D : FFD7;
    107E : 0023;
    107F : FFD0;
    1080 : FF4F;
    1081 : FFB1;
    1082 : FFC0;
    1083 : 0035;
    1084 : 003B;
    1085 : 004E;
    1086 : 007B;
    1087 : 001E;
    1088 : 0048;
    1089 : 0010;
    108A : 0008;
    108B : 0024;
    108C : 0002;
    108D : FFFF;
    108E : FFFF;
    108F : 0022;
    1090 : 001D;
    1091 : 0050;
    1092 : 0064;
    1093 : 0010;
    1094 : FFD3;
    1095 : FFEF;
    1096 : FFED;
    1097 : FFFC;
    1098 : FFF4;
    1099 : FFE7;
    109A : 000B;
    109B : FFF0;
    109C : FF57;
    109D : FFBE;
    109E : FFC1;
    109F : 0048;
    10A0 : 002F;
    10A1 : 0044;
    10A2 : 0055;
    10A3 : FFDE;
    10A4 : 002C;
    10A5 : 0023;
    10A6 : FFF1;
    10A7 : 0002;
    10A8 : 000E;
    10A9 : 0003;
    10AA : FFF0;
    10AB : FFF1;
    10AC : FFEC;
    10AD : FFF3;
    10AE : 0027;
    10AF : FFEF;
    10B0 : FFE2;
    10B1 : FFF3;
    10B2 : FFF7;
    10B3 : FFDC;
    10B4 : FFDC;
    10B5 : FFE0;
    10B6 : 001F;
    10B7 : FFFA;
    10B8 : FFDF;
    10B9 : 0004;
    10BA : FFEF;
    10BB : 004D;
    10BC : 001F;
    10BD : 0023;
    10BE : 006F;
    10BF : FFE3;
    10C0 : FFEB;
    10C1 : FFDB;
    10C2 : 0009;
    10C3 : FFFE;
    10C4 : 0003;
    10C5 : FFF0;
    10C6 : FFDC;
    10C7 : FFE7;
    10C8 : FFCC;
    10C9 : FFEC;
    10CA : 0028;
    10CB : FFEC;
    10CC : FFEA;
    10CD : 0004;
    10CE : 0001;
    10CF : FFC7;
    10D0 : FFF8;
    10D1 : 0006;
    10D2 : FFF1;
    10D3 : FFF3;
    10D4 : 002B;
    10D5 : 0029;
    10D6 : FFFB;
    10D7 : FFC0;
    10D8 : FFB5;
    10D9 : 0019;
    10DA : 008D;
    10DB : FFDC;
    10DC : FF9E;
    10DD : FFCF;
    10DE : FFEE;
    10DF : FFE1;
    10E0 : FFF9;
    10E1 : 0002;
    10E2 : 000B;
    10E3 : FFEB;
    10E4 : FFE7;
    10E5 : FFF3;
    10E6 : 0017;
    10E7 : 0003;
    10E8 : FFDA;
    10E9 : 0004;
    10EA : 000B;
    10EB : 000A;
    10EC : 0007;
    10ED : FFFA;
    10EE : FFEB;
    10EF : 0002;
    10F0 : 000B;
    10F1 : 001E;
    10F2 : 0073;
    10F3 : 003D;
    10F4 : FFC8;
    10F5 : 000C;
    10F6 : 0037;
    10F7 : FFDA;
    10F8 : FFD1;
    10F9 : FFFB;
    10FA : FFF6;
    10FB : FFF2;
    10FC : FFEC;
    10FD : FFF9;
    10FE : 0004;
    10FF : FFEA;
    1100 : FFD5;
    1101 : FFF5;
    1102 : 0015;
    1103 : 0017;
    1104 : 0001;
    1105 : 0015;
    1106 : 0006;
    1107 : FFF8;
    1108 : 0020;
    1109 : FFE3;
    110A : 0002;
    110B : FFDE;
    110C : FFED;
    110D : FFF5;
    110E : 0039;
    110F : 0044;
    1110 : 0052;
    1111 : 000D;
    1112 : 0043;
    1113 : FFD9;
    1114 : 000C;
    1115 : FFDA;
    1116 : 000C;
    1117 : 003F;
    1118 : 0013;
    1119 : 0012;
    111A : 000C;
    111B : FFE5;
    111C : FFD2;
    111D : FFE8;
    111E : 000A;
    111F : FFED;
    1120 : 0013;
    1121 : 0003;
    1122 : 0006;
    1123 : 000C;
    1124 : 0005;
    1125 : FFFC;
    1126 : FFE1;
    1127 : FFED;
    1128 : 002F;
    1129 : FFFF;
    112A : 0069;
    112B : 004F;
    112C : 000A;
    112D : 0021;
    112E : 000A;
    112F : 0007;
    1130 : 0008;
    1131 : FFD2;
    1132 : FFF4;
    1133 : 0014;
    1134 : FFCB;
    1135 : FFD6;
    1136 : FFF9;
    1137 : FFCB;
    1138 : FFDC;
    1139 : 0007;
    113A : 0029;
    113B : 001B;
    113C : 0012;
    113D : 000E;
    113E : 001E;
    113F : 000F;
    1140 : 000F;
    1141 : 0014;
    1142 : 003C;
    1143 : 0007;
    1144 : 001D;
    1145 : 0075;
    1146 : 0078;
    1147 : 003B;
    1148 : 0064;
    1149 : 0047;
    114A : 004D;
    114B : FFFC;
    114C : 002C;
    114D : FFDB;
    114E : FFE8;
    114F : FFE7;
    1150 : FFE9;
    1151 : FFD6;
    1152 : 0001;
    1153 : FFDA;
    1154 : FFE7;
    1155 : 0014;
    1156 : 0003;
    1157 : 0013;
    1158 : 0001;
    1159 : 000A;
    115A : 000F;
    115B : 000D;
    115C : 001A;
    115D : 002C;
    115E : 0023;
    115F : FFDD;
    1160 : 0001;
    1161 : 0097;
    1162 : 00B7;
    1163 : FFFC;
    1164 : 0020;
    1165 : 0061;
    1166 : 0043;
    1167 : FFDC;
    1168 : 004F;
    1169 : FFF3;
    116A : FFE3;
    116B : FFDD;
    116C : FFC4;
    116D : FFF8;
    116E : FFF3;
    116F : FFD0;
    1170 : FFFF;
    1171 : 001D;
    1172 : 0011;
    1173 : 000B;
    1174 : 0008;
    1175 : 0016;
    1176 : FFFA;
    1177 : 0028;
    1178 : 0011;
    1179 : 0004;
    117A : 000E;
    117B : FFEC;
    117C : 0002;
    117D : 0061;
    117E : 003C;
    117F : FFF9;
    1180 : FFF3;
    1181 : 0055;
    1182 : 0022;
    1183 : FFC9;
    1184 : FFE9;
    1185 : FFD0;
    1186 : FFFF;
    1187 : 0008;
    1188 : FFD7;
    1189 : FFF0;
    118A : FFDF;
    118B : FFE0;
    118C : 0007;
    118D : 001B;
    118E : 0019;
    118F : 0012;
    1190 : 0006;
    1191 : FFED;
    1192 : FFDF;
    1193 : FFF3;
    1194 : 0005;
    1195 : 0009;
    1196 : FFFA;
    1197 : FFEF;
    1198 : 003F;
    1199 : FFF0;
    119A : 004C;
    119B : 0002;
    119C : 0026;
    119D : FFFA;
    119E : 0033;
    119F : FFF2;
    11A0 : FFC3;
    11A1 : FFF1;
    11A2 : FFFB;
    11A3 : FFCF;
    11A4 : FFCC;
    11A5 : FFCF;
    11A6 : FFF9;
    11A7 : FFE6;
    11A8 : 0012;
    11A9 : 000A;
    11AA : 0010;
    11AB : FFFA;
    11AC : 0003;
    11AD : FFE9;
    11AE : 0000;
    11AF : 0014;
    11B0 : FFEE;
    11B1 : FFFA;
    11B2 : FFC3;
    11B3 : FFD5;
    11B4 : 0004;
    11B5 : 002C;
    11B6 : 0048;
    11B7 : FFFB;
    11B8 : 0026;
    11B9 : 0019;
    11BA : 003C;
    11BB : FFEF;
    11BC : FFF7;
    11BD : 0016;
    11BE : 0005;
    11BF : FFEC;
    11C0 : FFF8;
    11C1 : 0000;
    11C2 : FFFE;
    11C3 : FFEE;
    11C4 : 0007;
    11C5 : FFEA;
    11C6 : 000C;
    11C7 : 0013;
    11C8 : FFFC;
    11C9 : FFF4;
    11CA : FFDF;
    11CB : FFED;
    11CC : 000E;
    11CD : FFED;
    11CE : FFEE;
    11CF : FFE6;
    11D0 : FFFC;
    11D1 : 001F;
    11D2 : FFB8;
    11D3 : FFFE;
    11D4 : 0001;
    11D5 : FFFD;
    11D6 : FFCC;
    11D7 : FFB3;
    11D8 : FFD5;
    11D9 : FFD9;
    11DA : FFD3;
    11DB : 000F;
    11DC : FFF6;
    11DD : 0019;
    11DE : FFFA;
    11DF : 0015;
    11E0 : 000F;
    11E1 : 0017;
    11E2 : 0001;
    11E3 : 0010;
    11E4 : FFF9;
    11E5 : 0013;
    11E6 : FFF0;
    11E7 : FFD4;
    11E8 : FFC6;
    11E9 : FFDE;
    11EA : FFE9;
    11EB : FFCE;
    11EC : FFC1;
    11ED : 0008;
    11EE : FFDC;
    11EF : 0001;
    11F0 : FFFF;
    11F1 : FFEE;
    11F2 : 0054;
    11F3 : 0037;
    11F4 : 003F;
    11F5 : 0053;
    11F6 : 001E;
    11F7 : 0008;
    11F8 : 0002;
    11F9 : FFF2;
    11FA : FFF2;
    11FB : FFED;
    11FC : FFF1;
    11FD : 0003;
    11FE : 000D;
    11FF : 0014;
    1200 : FFE6;
    1201 : 0029;
    1202 : 000C;
    1203 : 001F;
    1204 : FFE3;
    1205 : FFFC;
    1206 : FF9B;
    1207 : FFCE;
    1208 : FFFE;
    1209 : 0055;
    120A : 004F;
    120B : 000C;
    120C : 0004;
    120D : FFFB;
    120E : FFAC;
    120F : FFD4;
    1210 : FFE4;
    1211 : FFE6;
    1212 : 000A;
    1213 : 002E;
    1214 : 004B;
    1215 : 0004;
    1216 : FFD3;
    1217 : 001A;
    1218 : 0033;
    1219 : FFF7;
    121A : 0018;
    121B : FFF7;
    121C : 0000;
    121D : FFF2;
    121E : FFF3;
    121F : FFEA;
    1220 : FFB7;
    1221 : FFC6;
    1222 : FF9A;
    1223 : FF8A;
    1224 : FF94;
    1225 : FFC5;
    1226 : 0017;
    1227 : 0010;
    1228 : 0003;
    1229 : FFF1;
    122A : 000B;
    122B : FFF1;
    122C : FFAF;
    122D : FFA4;
    122E : FFE0;
    122F : 0039;
    1230 : 0065;
    1231 : 004A;
    1232 : 004C;
    1233 : 0016;
    1234 : FFF4;
    1235 : 0034;
    1236 : 0045;
    1237 : 002C;
    1238 : 0015;
    1239 : 0010;
    123A : 0013;
    123B : 0034;
    123C : FFF3;
    123D : 0034;
    123E : 0072;
    123F : 0075;
    1240 : 000A;
    1241 : 001B;
    1242 : FFFD;
    1243 : FFE3;
    1244 : 0009;
    1245 : FFF9;
    1246 : 0003;
    1247 : FFF0;
    1248 : 001D;
    1249 : 0025;
    124A : 0061;
    124B : 0028;
    124C : 0058;
    124D : 0012;
    124E : 0066;
    124F : 000D;
    1250 : FFF0;
    1251 : 006D;
    1252 : 0081;
    1253 : 002D;
    1254 : 0002;
    1255 : 007C;
    1256 : 0022;
    1257 : 0049;
    1258 : 0039;
    1259 : 008A;
    125A : 007C;
    125B : 006F;
    125C : 0005;
    125D : FFF6;
    125E : FFF7;
    125F : FFFE;
    1260 : 000C;
    1261 : FFF5;
    1262 : 0004;
    1263 : 000A;
    1264 : 000A;
    1265 : FFEF;
    1266 : FFFC;
    1267 : 0010;
    1268 : 0019;
    1269 : 0007;
    126A : FFF8;
    126B : FFFD;
    126C : FFF8;
    126D : FFF4;
    126E : FFFB;
    126F : FFF9;
    1270 : FFF4;
    1271 : FFFC;
    1272 : FFFE;
    1273 : FFEF;
    1274 : FFFC;
    1275 : 0006;
    1276 : FFFB;
    1277 : 0000;
    1278 : 0000;
    1279 : 000A;
    127A : 0004;
    127B : 0002;
    127C : FFF9;
    127D : 0007;
    127E : 0002;
    127F : 000A;
    1280 : 0003;
    1281 : FFF8;
    1282 : FFFC;
    1283 : FFE7;
    1284 : FFCD;
    1285 : FFD2;
    1286 : FFDD;
    1287 : FFFA;
    1288 : FFFE;
    1289 : FFE3;
    128A : 0061;
    128B : 0075;
    128C : FF97;
    128D : FF85;
    128E : FFD1;
    128F : 000A;
    1290 : FFE6;
    1291 : 0007;
    1292 : 0016;
    1293 : FFE7;
    1294 : 0000;
    1295 : 0000;
    1296 : 0004;
    1297 : FFFB;
    1298 : 0018;
    1299 : FFFA;
    129A : 0005;
    129B : 0002;
    129C : 0003;
    129D : FFF6;
    129E : FFEC;
    129F : FFCE;
    12A0 : FFCA;
    12A1 : FFD1;
    12A2 : FFAC;
    12A3 : FFAF;
    12A4 : FF73;
    12A5 : FF6E;
    12A6 : FFBA;
    12A7 : FFE9;
    12A8 : FFEE;
    12A9 : FFA8;
    12AA : FF59;
    12AB : FFE3;
    12AC : FF85;
    12AD : FFB2;
    12AE : FF9B;
    12AF : FF94;
    12B0 : FFBF;
    12B1 : 0019;
    12B2 : 0017;
    12B3 : 0006;
    12B4 : 0011;
    12B5 : 0007;
    12B6 : 0023;
    12B7 : 000C;
    12B8 : FFF3;
    12B9 : FFD0;
    12BA : FFCB;
    12BB : 000C;
    12BC : FF9C;
    12BD : FFA8;
    12BE : FF9E;
    12BF : FF87;
    12C0 : FFA2;
    12C1 : FF8C;
    12C2 : FF87;
    12C3 : FFB7;
    12C4 : FFB7;
    12C5 : FFB9;
    12C6 : FFC3;
    12C7 : FFE9;
    12C8 : FF97;
    12C9 : FF92;
    12CA : FFE3;
    12CB : FF7D;
    12CC : FF88;
    12CD : FFEF;
    12CE : FFB7;
    12CF : FFFF;
    12D0 : 0006;
    12D1 : 0006;
    12D2 : 0024;
    12D3 : 0005;
    12D4 : FFD4;
    12D5 : FFE0;
    12D6 : 0028;
    12D7 : 0013;
    12D8 : FF97;
    12D9 : FF43;
    12DA : FF6B;
    12DB : FFE9;
    12DC : FFFB;
    12DD : 004E;
    12DE : 0028;
    12DF : FFF2;
    12E0 : FFF8;
    12E1 : FFE8;
    12E2 : FFE9;
    12E3 : FFFF;
    12E4 : FFE7;
    12E5 : FFD7;
    12E6 : FFC7;
    12E7 : 000D;
    12E8 : FF99;
    12E9 : FF96;
    12EA : FF6E;
    12EB : FF84;
    12EC : 0001;
    12ED : FFF8;
    12EE : 0054;
    12EF : 005D;
    12F0 : 0062;
    12F1 : 002A;
    12F2 : 0009;
    12F3 : 004E;
    12F4 : FF73;
    12F5 : FF87;
    12F6 : FF85;
    12F7 : FF93;
    12F8 : FFC7;
    12F9 : FFDA;
    12FA : FFF7;
    12FB : FFF7;
    12FC : 0001;
    12FD : FFDA;
    12FE : FFF3;
    12FF : FFF1;
    1300 : 000B;
    1301 : FFF7;
    1302 : 0009;
    1303 : 0003;
    1304 : FFB6;
    1305 : FF46;
    1306 : FFA4;
    1307 : FFD4;
    1308 : FFFB;
    1309 : FFBF;
    130A : FFF3;
    130B : 0050;
    130C : 0087;
    130D : FF9A;
    130E : FFDD;
    130F : 002E;
    1310 : FFEA;
    1311 : FFB4;
    1312 : FF9E;
    1313 : FFB1;
    1314 : FFCD;
    1315 : FFCC;
    1316 : FFFC;
    1317 : FFEC;
    1318 : FFF3;
    1319 : 000D;
    131A : 0020;
    131B : 0009;
    131C : 0024;
    131D : FFF5;
    131E : 0000;
    131F : 0038;
    1320 : FFD9;
    1321 : FF6B;
    1322 : 0027;
    1323 : FFE5;
    1324 : FFFA;
    1325 : FF88;
    1326 : 0006;
    1327 : 0064;
    1328 : 004A;
    1329 : FFDB;
    132A : FFB0;
    132B : 002C;
    132C : FFFA;
    132D : FFC6;
    132E : FFC9;
    132F : FFE3;
    1330 : 0013;
    1331 : 0010;
    1332 : 001E;
    1333 : FFEB;
    1334 : FFEA;
    1335 : 000A;
    1336 : 0001;
    1337 : 0006;
    1338 : FFF4;
    1339 : FFE5;
    133A : 0018;
    133B : 0039;
    133C : FFAB;
    133D : FFA2;
    133E : 004D;
    133F : FFC4;
    1340 : 0047;
    1341 : FF6C;
    1342 : 0013;
    1343 : 004F;
    1344 : 0031;
    1345 : 0021;
    1346 : FFAB;
    1347 : FFDF;
    1348 : FFEF;
    1349 : FFC2;
    134A : FFB2;
    134B : FFCF;
    134C : FFEC;
    134D : 0017;
    134E : 0008;
    134F : 0001;
    1350 : FFE7;
    1351 : 002D;
    1352 : 0028;
    1353 : 002D;
    1354 : 000D;
    1355 : 0019;
    1356 : 0014;
    1357 : 0010;
    1358 : 0019;
    1359 : 0004;
    135A : 0024;
    135B : FFEC;
    135C : FFFD;
    135D : 0007;
[...]
    2C68 : FFBA;
    2C69 : 0049;
    2C6A : FF8D;
    2C6B : FFEE;
    2C6C : FFE0;
    2C6D : FFB0;
    2C6E : FFE8;
    2C6F : FFC1;
    2C70 : FFE6;
    2C71 : FFCA;
    2C72 : FFB7;
    2C73 : FFDE;
    2C74 : 003B;
    2C75 : 0056;
    2C76 : 0064;
    2C77 : 0047;
    2C78 : 0024;
    2C79 : 001F;
    2C7A : 0029;
    2C7B : FFF8;
    2C7C : FFFD;
    2C7D : 0024;
    2C7E : FFD2;
    2C7F : FF95;
    2C80 : FF69;
    2C81 : FF9E;
    2C82 : 0085;
    2C83 : 0012;
    2C84 : FFA5;
    2C85 : 003E;
    2C86 : FFE7;
    2C87 : FFEA;
    2C88 : FFEC;
    2C89 : 001A;
    2C8A : 001E;
    2C8B : FFE8;
    2C8C : FFE6;
    2C8D : FFB5;
    2C8E : FFC3;
    2C8F : 0009;
    2C90 : 0058;
    2C91 : 005B;
    2C92 : 004F;
    2C93 : 0013;
    2C94 : 002C;
    2C95 : 0018;
    2C96 : 000A;
    2C97 : 0022;
    2C98 : 0027;
    2C99 : 000A;
    2C9A : FFC9;
    2C9B : FFE2;
    2C9C : 0003;
    2C9D : FFE2;
    2C9E : 0002;
    2C9F : 0032;
    2CA0 : FFBC;
    2CA1 : 005C;
    2CA2 : 0071;
    2CA3 : 0032;
    2CA4 : 001C;
    2CA5 : 0018;
    2CA6 : 0010;
    2CA7 : FFEC;
    2CA8 : FFFD;
    2CA9 : 0003;
    2CAA : 002A;
    2CAB : 0037;
    2CAC : 003E;
    2CAD : 0057;
    2CAE : 0024;
    2CAF : FFD7;
    2CB0 : 0001;
    2CB1 : 0003;
    2CB2 : 0006;
    2CB3 : 0013;
    2CB4 : FFF4;
    2CB5 : FFDF;
    2CB6 : FFF2;
    2CB7 : 0009;
    2CB8 : 004C;
    2CB9 : 002E;
    2CBA : 005E;
    2CBB : 0043;
    2CBC : FFFC;
    2CBD : 006C;
    2CBE : FFF6;
    2CBF : 0068;
    2CC0 : FFFD;
    2CC1 : FFD5;
    2CC2 : 0002;
    2CC3 : 0022;
    2CC4 : 0055;
    2CC5 : 0027;
    2CC6 : 001D;
    2CC7 : 0011;
    2CC8 : 001B;
    2CC9 : 002D;
    2CCA : FFE3;
    2CCB : FFCE;
    2CCC : FFF8;
    2CCD : 0012;
    2CCE : FFE9;
    2CCF : 0022;
    2CD0 : FFEC;
    2CD1 : FFEE;
    2CD2 : FFDC;
    2CD3 : 0004;
    2CD4 : FFA6;
    2CD5 : FFDF;
    2CD6 : 0024;
    2CD7 : 0062;
    2CD8 : 002E;
    2CD9 : 005E;
    2CDA : FFF7;
    2CDB : 007F;
    2CDC : 0014;
    2CDD : 0008;
    2CDE : 002D;
    2CDF : 002C;
    2CE0 : 0029;
    2CE1 : 002C;
    2CE2 : 004B;
    2CE3 : 0034;
    2CE4 : 0024;
    2CE5 : 001F;
    2CE6 : FFE4;
    2CE7 : 0009;
    2CE8 : 0011;
    2CE9 : 0013;
    2CEA : 000A;
    2CEB : 0010;
    2CEC : FFE4;
    2CED : FFFD;
    2CEE : 0019;
    2CEF : FFF0;
    2CF0 : FFB7;
    2CF1 : 0009;
    2CF2 : FFA0;
    2CF3 : 0047;
    2CF4 : FFF2;
    2CF5 : FFAD;
    2CF6 : FFBD;
    2CF7 : 004D;
    2CF8 : 0016;
    2CF9 : 0042;
    2CFA : 003E;
    2CFB : 001B;
    2CFC : 0031;
    2CFD : 002D;
    2CFE : 003E;
    2CFF : 000D;
    2D00 : 0021;
    2D01 : 0018;
    2D02 : FFFD;
    2D03 : 0013;
    2D04 : 0016;
    2D05 : 0021;
    2D06 : 0039;
    2D07 : 002F;
    2D08 : 0005;
    2D09 : 001A;
    2D0A : 0034;
    2D0B : 0024;
    2D0C : FFD6;
    2D0D : 003F;
    2D0E : 003B;
    2D0F : 002A;
    2D10 : FFF7;
    2D11 : FFCA;
    2D12 : FFB6;
    2D13 : 005D;
    2D14 : 0037;
    2D15 : 0045;
    2D16 : 004A;
    2D17 : 0059;
    2D18 : 0044;
    2D19 : 0037;
    2D1A : 001D;
    2D1B : FFFA;
    2D1C : FFD8;
    2D1D : 0014;
    2D1E : 0020;
    2D1F : 0017;
    2D20 : 0035;
    2D21 : 003A;
    2D22 : 004E;
    2D23 : 000D;
    2D24 : 0035;
    2D25 : 0028;
    2D26 : 0039;
    2D27 : 0035;
    2D28 : FFB6;
    2D29 : 0023;
    2D2A : FFE2;
    2D2B : 002E;
    2D2C : FFE7;
    2D2D : 0029;
    2D2E : 001E;
    2D2F : 0053;
    2D30 : 0044;
    2D31 : FFE7;
    2D32 : 001F;
    2D33 : 0033;
    2D34 : 001C;
    2D35 : 000D;
    2D36 : FFEE;
    2D37 : 0011;
    2D38 : FFFE;
    2D39 : 0023;
    2D3A : 0029;
    2D3B : 0024;
    2D3C : 0036;
    2D3D : 0032;
    2D3E : 0040;
    2D3F : 0020;
    2D40 : 000F;
    2D41 : FFF2;
    2D42 : 002B;
    2D43 : 0024;
    2D44 : FF8B;
    2D45 : FFBF;
    2D46 : FF91;
    2D47 : 0003;
    2D48 : FFEC;
    2D49 : 0015;
    2D4A : FFFC;
    2D4B : 004B;
    2D4C : 0024;
    2D4D : FFD5;
    2D4E : FFF2;
    2D4F : FFED;
    2D50 : FFFB;
    2D51 : FFFB;
    2D52 : FFF9;
    2D53 : 0017;
    2D54 : 0012;
    2D55 : 0009;
    2D56 : 000C;
    2D57 : 0016;
    2D58 : 0011;
    2D59 : 002F;
    2D5A : 0036;
    2D5B : 001E;
    2D5C : 0035;
    2D5D : 002B;
    2D5E : 0072;
    2D5F : 005F;
    2D60 : FFAA;
    2D61 : FFBF;
    2D62 : FF9C;
    2D63 : 0000;
    2D64 : FFF1;
    2D65 : FFFF;
    2D66 : 005E;
    2D67 : 0094;
    2D68 : 0049;
    2D69 : 0017;
    2D6A : FFE7;
    2D6B : 0000;
    2D6C : 0016;
    2D6D : 0008;
    2D6E : 0020;
    2D6F : 0035;
    2D70 : FFFC;
    2D71 : 0023;
    2D72 : 0007;
    2D73 : 0004;
    2D74 : 0008;
    2D75 : 0035;
    2D76 : 0056;
    2D77 : 0023;
    2D78 : 0061;
    2D79 : 0001;
    2D7A : 0045;
    2D7B : 0075;
    2D7C : 0020;
    2D7D : FFA8;
    2D7E : FFB5;
    2D7F : 0000;
    2D80 : FFF9;
    2D81 : 000A;
    2D82 : FFD5;
    2D83 : 001B;
    2D84 : 0022;
    2D85 : FFD9;
    2D86 : 0035;
    2D87 : 0021;
    2D88 : 0016;
    2D89 : 002D;
    2D8A : 0028;
    2D8B : 002D;
    2D8C : 0020;
    2D8D : 000F;
    2D8E : 0004;
    2D8F : 0014;
    2D90 : 004D;
    2D91 : 0040;
    2D92 : 0029;
    2D93 : 0016;
    2D94 : 0002;
    2D95 : FFED;
    2D96 : FFF2;
    2D97 : 0050;
    2D98 : 000C;
    2D99 : FFAB;
    2D9A : FFD8;
    2D9B : FFFF;
    2D9C : 0004;
    2D9D : 0008;
    2D9E : 007E;
    2D9F : FF78;
    2DA0 : FFE6;
    2DA1 : 0024;
    2DA2 : 0046;
    2DA3 : 0047;
    2DA4 : 003A;
    2DA5 : 002E;
    2DA6 : 004C;
    2DA7 : 0020;
    2DA8 : 0038;
    2DA9 : 0023;
    2DAA : 003B;
    2DAB : 0012;
    2DAC : 0029;
    2DAD : 0021;
    2DAE : 0002;
    2DAF : 0052;
    2DB0 : 0058;
    2DB1 : 0024;
    2DB2 : FFE7;
    2DB3 : 003A;
    2DB4 : 003F;
    2DB5 : 0005;
    2DB6 : FFDB;
    2DB7 : 000A;
    2DB8 : 000D;
    2DB9 : FFF1;
    2DBA : FFEF;
    2DBB : 0032;
    2DBC : 0050;
    2DBD : 005E;
    2DBE : 0044;
    2DBF : 0043;
    2DC0 : 0016;
    2DC1 : 0022;
    2DC2 : 0047;
    2DC3 : 003F;
    2DC4 : 0027;
    2DC5 : 003D;
    2DC6 : 0060;
    2DC7 : 0027;
    2DC8 : 0037;
    2DC9 : 0063;
    2DCA : 003E;
    2DCB : 0018;
    2DCC : 0086;
    2DCD : 005A;
    2DCE : 003C;
    2DCF : 007A;
    2DD0 : 005E;
    2DD1 : FFDA;
    2DD2 : FFFC;
    2DD3 : 0004;
    2DD4 : 0005;
    2DD5 : 000D;
    2DD6 : FFFB;
    2DD7 : 0002;
    2DD8 : FFEF;
    2DD9 : FFBC;
    2DDA : 002A;
    2DDB : 0048;
    2DDC : 0032;
    2DDD : 0019;
    2DDE : 001D;
    2DDF : 0030;
    2DE0 : 0035;
    2DE1 : FFDE;
    2DE2 : 0057;
    2DE3 : 0017;
    2DE4 : 0013;
    2DE5 : FFBB;
    2DE6 : FFDA;
    2DE7 : FFEE;
    2DE8 : FFCC;
    2DE9 : FFA7;
    2DEA : FFBA;
    2DEB : FF87;
    2DEC : FFEA;
    2DED : 0008;
    2DEE : FFFD;
    2DEF : 0009;
    2DF0 : FFF9;
    2DF1 : 0001;
    2DF2 : 0001;
    2DF3 : 0005;
    2DF4 : 0001;
    2DF5 : FFF4;
    2DF6 : 0001;
    2DF7 : FFF7;
    2DF8 : FFFF;
    2DF9 : 0001;
    2DFA : 000D;
    2DFB : 0008;
    2DFC : 001E;
    2DFD : 0005;
    2DFE : FFBF;
    2DFF : FFCB;
    2E00 : FFF4;
    2E01 : FFEF;
    2E02 : 0001;
    2E03 : FFFC;
    2E04 : 000B;
    2E05 : 0006;
    2E06 : FFF4;
    2E07 : FFFF;
    2E08 : 0002;
    2E09 : 0001;
    2E0A : 0008;
    2E0B : 0003;
    2E0C : FFF8;
    2E0D : 0007;
    2E0E : FFF7;
    2E0F : 0008;
    2E10 : 0014;
    2E11 : 0006;
    2E12 : FFFE;
    2E13 : 0005;
    2E14 : 0010;
    2E15 : 0043;
    2E16 : 005D;
    2E17 : FFE4;
    2E18 : FFF8;
    2E19 : 0037;
    2E1A : FFF3;
    2E1B : FF98;
    2E1C : FF8D;
    2E1D : FFC5;
    2E1E : 0075;
    2E1F : 0056;
    2E20 : 0020;
    2E21 : 0009;
    2E22 : FFC3;
    2E23 : FFBD;
    2E24 : 000E;
    2E25 : 0009;
    2E26 : 0003;
    2E27 : FFF6;
    2E28 : FFF3;
    2E29 : FFFC;
    2E2A : 0017;
    2E2B : FF9A;
    2E2C : FFA4;
    2E2D : 001F;
    2E2E : 0000;
    2E2F : 0035;
    2E30 : 0034;
    2E31 : FFDA;
    2E32 : FFCB;
    2E33 : 0017;
    2E34 : 0011;
    2E35 : FFE6;
    2E36 : 0050;
    2E37 : 0035;
    2E38 : FFDB;
    2E39 : 0041;
    2E3A : 001D;
    2E3B : 003C;
    2E3C : 001A;
    2E3D : 0026;
    2E3E : 0044;
    2E3F : FFAD;
    2E40 : FFCD;
    2E41 : FFC9;
    2E42 : 000B;
    2E43 : FFFF;
    2E44 : FFF0;
    2E45 : 0004;
    2E46 : FF9B;
    2E47 : FF97;
    2E48 : FFA6;
    2E49 : 008C;
    2E4A : 0058;
    2E4B : 0061;
    2E4C : 000F;
    2E4D : FFE4;
    2E4E : 0014;
    2E4F : 0076;
    2E50 : 002A;
    2E51 : FFEA;
    2E52 : 0024;
    2E53 : 0014;
    2E54 : 0015;
    2E55 : 0020;
    2E56 : 0030;
    2E57 : 001A;
    2E58 : FFED;
    2E59 : 0037;
    2E5A : 006B;
    2E5B : 006C;
    2E5C : FFD6;
    2E5D : FFE7;
    2E5E : 0017;
    2E5F : 0005;
    2E60 : FFEC;
    2E61 : FFED;
    2E62 : FFB8;
    2E63 : FFAF;
    2E64 : 0056;
    2E65 : FFE2;
    2E66 : FFB2;
    2E67 : 0015;
    2E68 : 002A;
    2E69 : 0013;
    2E6A : 0005;
    2E6B : 0007;
    2E6C : 0017;
    2E6D : 0000;
    2E6E : FFF2;
    2E6F : FFD0;
    2E70 : 0007;
    2E71 : 0029;
    2E72 : 000B;
    2E73 : 0004;
    2E74 : 002F;
    2E75 : 005D;
    2E76 : 0039;
    2E77 : 001B;
    2E78 : 0033;
    2E79 : 0009;
    2E7A : FFF6;
    2E7B : 0034;
    2E7C : FFF6;
    2E7D : FFFE;
    2E7E : FF8D;
    2E7F : FF62;
    2E80 : FFED;
    2E81 : FFEE;
    2E82 : 001B;
    2E83 : 0024;
    2E84 : 0061;
    2E85 : 0031;
    2E86 : 001E;
    2E87 : 0013;
    2E88 : 001B;
    2E89 : FFFB;
    2E8A : 000F;
    2E8B : FFFA;
    2E8C : 0014;
    2E8D : 001F;
    2E8E : FFFC;
    2E8F : FFF9;
    2E90 : FFF2;
    2E91 : FFF1;
    2E92 : FFED;
    2E93 : FFED;
    2E94 : 0030;
    2E95 : 001E;
    2E96 : 0004;
    2E97 : 0046;
    2E98 : 0000;
    2E99 : FFB6;
    2E9A : 0017;
    2E9B : FFD8;
    2E9C : 0010;
    2E9D : 000E;
    2E9E : 0002;
    2E9F : 0019;
    2EA0 : 003E;
    2EA1 : 004B;
    2EA2 : 0007;
    2EA3 : 0022;
    2EA4 : 001E;
    2EA5 : FFEF;
    2EA6 : 0010;
    2EA7 : FFFD;
    2EA8 : FFF6;
    2EA9 : 0031;
    2EAA : 000C;
    2EAB : 0016;
    2EAC : 0009;
    2EAD : 001B;
    2EAE : FFFB;
    2EAF : 003D;
    2EB0 : 002B;
    2EB1 : FFD7;
    2EB2 : 001B;
    2EB3 : 007D;
    2EB4 : 001A;
    2EB5 : FFF4;
    2EB6 : 004B;
    2EB7 : 001B;
    2EB8 : FFE5;
    2EB9 : FFDC;
    2EBA : 0014;
    2EBB : 003B;
    2EBC : 002A;
    2EBD : 0038;
    2EBE : 002B;
    2EBF : 0017;
    2EC0 : 0008;
    2EC1 : 0018;
    2EC2 : FFDC;
    2EC3 : 0007;
    2EC4 : FFFE;
    2EC5 : 000C;
    2EC6 : 001D;
    2EC7 : 0011;
    2EC8 : 0010;
    2EC9 : 0028;
    2ECA : FFFE;
    2ECB : 003E;
    2ECC : 002E;
    2ECD : FFF1;
    2ECE : 0052;
    2ECF : 005D;
    2ED0 : FF8B;
    2ED1 : 003C;
    2ED2 : 000E;
    2ED3 : 001C;
    2ED4 : 0000;
    2ED5 : 0022;
    2ED6 : 002D;
    2ED7 : 0045;
    2ED8 : 0040;
    2ED9 : 002F;
    2EDA : 0009;
    2EDB : 0021;
    2EDC : 001F;
    2EDD : 0007;
    2EDE : FFDB;
    2EDF : FFF1;
    2EE0 : FFFE;
    2EE1 : FFE9;
    2EE2 : 0012;
    2EE3 : FFFA;
    2EE4 : 0003;
    2EE5 : 003B;
    2EE6 : 0009;
    2EE7 : 002B;
    2EE8 : 0068;
    2EE9 : 007B;
    2EEA : 004E;
    2EEB : FFE7;
    2EEC : 003D;
    2EED : 0068;
    2EEE : FFFE;
    2EEF : 0015;
    2EF0 : 000A;
    2EF1 : 003C;
    2EF2 : 0039;
    2EF3 : 0005;
    2EF4 : 0000;
    2EF5 : FFE7;
    2EF6 : FFE1;
    2EF7 : 000B;
    2EF8 : 0004;
    2EF9 : FFF4;
    2EFA : FFFE;
    2EFB : FFDD;
    2EFC : FFD5;
    2EFD : FFFD;
    2EFE : 0007;
    2EFF : 001F;
    2F00 : 002B;
    2F01 : 0033;
    2F02 : 001D;
    2F03 : 0000;
    2F04 : 003D;
    2F05 : 0024;
    2F06 : 002F;
    2F07 : 001A;
    2F08 : 0023;
    2F09 : 0030;
    2F0A : 000B;
    2F0B : FFF2;
    2F0C : 0035;
    2F0D : 0027;
    2F0E : 001C;
    2F0F : FFFC;
    2F10 : FFF2;
    2F11 : 0025;
    2F12 : 001D;
    2F13 : 0004;
    2F14 : 002B;
    2F15 : 0015;
    2F16 : 0019;
    2F17 : FFFF;
    2F18 : FFD6;
    2F19 : FFD5;
    2F1A : 0009;
    2F1B : 0028;
    2F1C : 004A;
    2F1D : 0033;
    2F1E : 0020;
    2F1F : 0008;
    2F20 : 0052;
    2F21 : 002D;
    2F22 : FFC3;
    2F23 : 0036;
    2F24 : 0050;
    2F25 : FFCE;
    2F26 : 0055;
    2F27 : 0032;
    2F28 : 0043;
    2F29 : 003E;
    2F2A : 001A;
    2F2B : 003F;
    2F2C : 0053;
    2F2D : 0078;
    2F2E : 0076;
    2F2F : 004E;
    2F30 : 0065;
    2F31 : 0031;
    2F32 : 0020;
    2F33 : 0007;
    2F34 : 0002;
    2F35 : 000E;
    2F36 : 0037;
    2F37 : 0028;
    2F38 : 002F;
    2F39 : 0037;
    2F3A : 002A;
    2F3B : 000C;
    2F3C : 0031;
    2F3D : FFE6;
    2F3E : 0035;
    2F3F : 005D;
    2F40 : 0043;
    2F41 : 0083;
    2F42 : 006D;
    2F43 : 0064;
    2F44 : 0040;
    2F45 : 0070;
    2F46 : 003B;
    2F47 : 007C;
    2F48 : 006B;
    2F49 : 0051;
    2F4A : 0039;
    2F4B : 005B;
    2F4C : FFFF;
    2F4D : FFFA;
    2F4E : 0009;
    2F4F : 003D;
    2F50 : 003F;
    2F51 : 003B;
    2F52 : 0040;
    2F53 : 0019;
    2F54 : 0003;
    2F55 : 0015;
    2F56 : 002B;
    2F57 : 003B;
    2F58 : 0023;
    2F59 : FFD4;
    2F5A : 0022;
    2F5B : 004D;
    2F5C : FFBB;
    2F5D : 003E;
    2F5E : 0088;
    2F5F : 0042;
    2F60 : 0078;
    2F61 : 0087;
    2F62 : 006F;
    2F63 : 0045;
    2F64 : 003F;
    2F65 : 0023;
    2F66 : 0027;
    2F67 : 0028;
    2F68 : FFE1;
    2F69 : FFF2;
    2F6A : 0025;
    2F6B : 006E;
    2F6C : 004D;
    2F6D : 002E;
    2F6E : 0028;
    2F6F : 0017;
    2F70 : 0024;
    2F71 : 0018;
    2F72 : 001F;
    2F73 : 000F;
    2F74 : FFED;
    2F75 : FFC3;
    2F76 : FFC1;
    2F77 : FF8F;
    2F78 : FFBC;
    2F79 : 0055;
    2F7A : 00AD;
    2F7B : 0053;
    2F7C : 001B;
    2F7D : 0057;
    2F7E : 0021;
    2F7F : 0005;
    2F80 : FFF9;
    2F81 : FFFB;
    2F82 : 001E;
    2F83 : 0017;
    2F84 : FFE4;
    2F85 : FFEC;
    2F86 : 0023;
    2F87 : 004C;
    2F88 : 0039;
    2F89 : 0036;
    2F8A : 000E;
    2F8B : 0037;
    2F8C : FFF8;
    2F8D : FFF1;
    2F8E : FFEE;
    2F8F : FFED;
    2F90 : FFC7;
    2F91 : FFF2;
    2F92 : FF59;
    2F93 : FFA5;
    2F94 : FFEE;
    2F95 : FFF6;
    2F96 : FFFD;
    2F97 : 001F;
    2F98 : FFE3;
    2F99 : FFE9;
    2F9A : FFFD;
    2F9B : FFC8;
    2F9C : FFE7;
    2F9D : FFCD;
    2F9E : FFF8;
    2F9F : 000C;
    2FA0 : FFE2;
    2FA1 : FFFA;
    2FA2 : 0033;
    2FA3 : 003F;
    2FA4 : 0022;
    2FA5 : 0036;
    2FA6 : 0006;
    2FA7 : 000B;
    2FA8 : 000F;
    2FA9 : 000C;
    2FAA : 0050;
    2FAB : 0002;
    2FAC : FF7E;
    2FAD : FFEF;
    2FAE : FFCD;
    2FAF : FFA8;
    2FB0 : 0051;
    2FB1 : FFF1;
    2FB2 : FFF8;
    2FB3 : FFC7;
    2FB4 : FFD4;
    2FB5 : FFEE;
    2FB6 : FFEE;
    2FB7 : 001A;
    2FB8 : 0021;
    2FB9 : FFFA;
    2FBA : FFE9;
    2FBB : FFD5;
    2FBC : FFF2;
    2FBD : FFFD;
    2FBE : 001F;
    2FBF : 0022;
    2FC0 : 0001;
    2FC1 : 0029;
    2FC2 : 0005;
    2FC3 : 0003;
    2FC4 : 000D;
    2FC5 : 0012;
    2FC6 : FFFE;
    2FC7 : 001E;
    2FC8 : FFDC;
    2FC9 : FFC5;
    2FCA : FF7F;
    2FCB : FF81;
    2FCC : FFFD;
    2FCD : FFE8;
    2FCE : 002A;
    2FCF : 0000;
    2FD0 : 0006;
    2FD1 : 001B;
    2FD2 : FFFB;
    2FD3 : 0006;
    2FD4 : FFE3;
    2FD5 : FFEE;
    2FD6 : FFD7;
    2FD7 : FFF5;
    2FD8 : 001E;
    2FD9 : 0038;
    2FDA : 0028;
    2FDB : 0005;
    2FDC : FFFE;
    2FDD : 0000;
    2FDE : 0006;
    2FDF : FFF7;
    2FE0 : 001D;
    2FE1 : FFEB;
    2FE2 : 0004;
    2FE3 : 001C;
    2FE4 : FFFB;
    2FE5 : FFB5;
    2FE6 : FF9E;
    2FE7 : FF8C;
    2FE8 : 006B;
    2FE9 : FFD0;
    2FEA : 006E;
    2FEB : 0017;
    2FEC : FFE5;
    2FED : 000D;
    2FEE : 0014;
    2FEF : 0020;
    2FF0 : FFE6;
    2FF1 : FFE7;
    2FF2 : FFEE;
    2FF3 : 0016;
    2FF4 : 0035;
    2FF5 : 0045;
    2FF6 : FFFF;
    2FF7 : FFC5;
    2FF8 : FFD4;
    2FF9 : FFF3;
    2FFA : FFEB;
    2FFB : FFEF;
    2FFC : FFF8;
    2FFD : FFD6;
    2FFE : FFC7;
    2FFF : FFF8;
    3000 : FFBC;
    3001 : FF83;
    3002 : 002A;
    3003 : FFD3;
    3004 : FFD6;
    3005 : 0057;
    3006 : 005A;
    3007 : 003E;
    3008 : 0003;
    3009 : 0005;
    300A : FFF3;
    300B : FFE3;
    300C : FFE2;
    300D : FFD2;
    300E : FFE0;
    300F : FFF9;
    3010 : 0032;
    3011 : 0009;
    3012 : FFE9;
    3013 : FFB8;
    3014 : FFD8;
    3015 : FFF3;
    3016 : FFC3;
    3017 : FFEA;
    3018 : FFE4;
    3019 : FFE9;
    301A : FFDD;
    301B : FFE9;
    301C : FFCB;
    301D : FF20;
    301E : FFB4;
    301F : FFC0;
    3020 : FFFC;
    3021 : 0000;
    3022 : 0005;
    3023 : FFB6;
    3024 : FFAC;
    3025 : FFF2;
    3026 : FFBE;
    3027 : FFE2;
    3028 : FFCE;
    3029 : FFC4;
    302A : FFEA;
    302B : FFE3;
    302C : 001B;
    302D : FFFE;
    302E : 000F;
    302F : FFF1;
    3030 : FFCC;
    3031 : FFD6;
    3032 : FFBD;
    3033 : FFCC;
    3034 : FFDB;
    3035 : FFDF;
    3036 : FFE5;
    3037 : FFE0;
    3038 : FFD5;
    3039 : FF3E;
    303A : FF90;
    303B : FFCC;
    303C : FFB7;
    303D : FFEC;
    303E : FF57;
    303F : FF32;
    3040 : FF81;
    3041 : FFCB;
    3042 : FFB6;
    3043 : FFDD;
    3044 : FFF2;
    3045 : 0009;
    3046 : FFF6;
    3047 : 001A;
    3048 : 0025;
    3049 : 0042;
    304A : 0024;
    304B : 000D;
    304C : FFFA;
    304D : FFEF;
    304E : FFDA;
    304F : FFDF;
    3050 : FFDF;
    3051 : FFD9;
    3052 : FFE1;
    3053 : FFF6;
    3054 : FFA8;
    3055 : FF5F;
    3056 : FF74;
    3057 : FFF5;
    3058 : FFAF;
    3059 : FFD0;
    305A : FFA2;
    305B : FFDB;
    305C : FFB0;
    305D : FF92;
    305E : FFB4;
    305F : FFD9;
    3060 : FFEF;
    3061 : FFF5;
    3062 : 001A;
    3063 : 001F;
    3064 : 0036;
    3065 : 000D;
    3066 : 002F;
    3067 : 001F;
    3068 : 000E;
    3069 : FFFA;
    306A : FFDE;
    306B : FFFD;
    306C : FFC5;
    306D : FFE8;
    306E : 0015;
    306F : 0039;
    3070 : 0014;
    3071 : FFBE;
    3072 : FFD8;
    3073 : FFF8;
    3074 : FFFB;
    3075 : 0004;
    3076 : FF86;
    3077 : FFF1;
    3078 : FFF1;
    3079 : FFD4;
    307A : FFE8;
    307B : FFF9;
    307C : FFF8;
    307D : FFD8;
    307E : FFF2;
    307F : FFE2;
    3080 : FFFA;
    3081 : FFFB;
    3082 : 0013;
    3083 : FFFF;
    3084 : 0015;
    3085 : FFF1;
    3086 : 0027;
    3087 : 001D;
    3088 : FFE8;
    3089 : 0023;
    308A : 0004;
    308B : 0018;
    308C : 0009;
    308D : 0011;
    308E : FFC0;
    308F : FFFB;
    3090 : 0004;
    3091 : FFF9;
    3092 : 0029;
    3093 : FFEA;
    3094 : FFF7;
    3095 : 0037;
    3096 : 0021;
    3097 : 0036;
    3098 : 001F;
    3099 : FFF3;
    309A : 002C;
    309B : 0044;
    309C : 001D;
    309D : 0017;
    309E : 0018;
    309F : 002D;
    30A0 : 0048;
    30A1 : FFF3;
    30A2 : 0014;
    30A3 : 0049;
    30A4 : 0027;
    30A5 : FFF9;
    30A6 : 0034;
    30A7 : 003F;
    30A8 : FF88;
    30A9 : FFB9;
    30AA : FFB2;
    30AB : FFFE;
    30AC : FFF4;
    30AD : FFFE;
    30AE : FFA4;
    30AF : 004A;
    30B0 : 0038;
    30B1 : 004A;
    30B2 : 001D;
    30B3 : 005C;
    30B4 : 0033;
    30B5 : 0026;
    30B6 : 005C;
    30B7 : 0069;
    30B8 : 0022;
    30B9 : 0031;
    30BA : 0050;
    30BB : 0045;
    30BC : 0055;
    30BD : 006A;
    30BE : 005F;
    30BF : 001A;
    30C0 : 0000;
    30C1 : 0074;
    30C2 : 0040;
    30C3 : FFF3;
    30C4 : FF9D;
    30C5 : FFF8;
    30C6 : FFC6;
    30C7 : FFE9;
    30C8 : 0004;
    30C9 : 0002;
    30CA : 0010;
    30CB : 0021;
    30CC : FFF5;
    30CD : 005F;
    30CE : 004A;
    30CF : 0051;
    30D0 : 0045;
    30D1 : 0025;
    30D2 : 0033;
    30D3 : 001E;
    30D4 : 003E;
    30D5 : 007E;
    30D6 : 006D;
    30D7 : 0017;
    30D8 : 0034;
    30D9 : 001B;
    30DA : 0022;
    30DB : 002B;
    30DC : 0014;
    30DD : 008A;
    30DE : 0083;
    30DF : 0007;
    30E0 : FFE7;
    30E1 : 001D;
    30E2 : FFFB;
    30E3 : 0000;
    30E4 : 0013;
    30E5 : 0003;
    30E6 : FFF3;
    30E7 : 0002;
    30E8 : 0025;
    30E9 : 0035;
    30EA : FFE6;
    30EB : FFC5;
    30EC : FFFF;
    30ED : FFE1;
    30EE : 001F;
    30EF : 000A;
    30F0 : FFFE;
    30F1 : 0066;
    30F2 : 0048;
    30F3 : 0009;
    30F4 : FFF6;
    30F5 : 007C;
    30F6 : 0087;
    30F7 : 0088;
    30F8 : 0064;
    30F9 : 00B2;
    30FA : 00CD;
    30FB : 007F;
    30FC : FFFA;
    30FD : 0001;
    30FE : FFF8;
    30FF : 0005;
END;
